11

O -1.1228409 -2.1543562 -0.622907
C 1.411365 0.14728044 0.19049415
N -0.69718033 0.18534237 -0.5887244
C -0.35642356 -1.2898327 -0.31077427
C 0.12264656 0.8751059 0.45986247
O 0.8038803 -1.2894639 0.22754902
H -1.7075682 0.3284392 -0.60288423
H 0.18009894 1.9443364 0.260185
H -0.42624956 0.6902101 1.4056139
H -0.26570788 0.41612738 -1.4940863
H 2.0579793 0.14681096 1.0756716
