11

N -1.12906655 1.14434010 1.25850407
C -0.43555505 0.43875049 0.47155535
C 0.65903526 -0.61126078 0.65638550
N 1.06114073 -1.03749945 -0.68321261
C 0.33139609 -0.37379457 -1.49130099
N -0.56847735 0.50402852 -0.91258162
H -0.89214003 0.94895199 2.22950621
H 1.51963311 -0.19966319 1.19605449
H 0.28843729 -1.46912223 1.22907397
H 0.37954713 -0.46204105 -2.57233785
H -1.21395051 1.11731016 -1.38164629
