12

N -1.0196959 1.2444246 -0.80664533
C -0.9202015 -0.4444577 -0.30537426
C 0.55114937 -0.6049191 0.23293428
C -0.7307557 1.123009 0.4336422
N 0.552438 0.6263505 1.0074724
C 1.5238818 -0.6925712 -0.86144125
N 2.288645 -0.7615313 -1.7254335
H 1.3113984 1.2735413 0.80678105
H 0.65497494 -1.482126 0.8798575
H -1.4547973 1.4106492 1.2160567
H -1.6336488 -0.87485677 0.4184087
H -1.1233883 -0.8175126 -1.2962586
