12

N -0.43389392 -1.6680504 2.3264592
C -0.34582007 -0.7712412 1.6045395
C -0.25377688 0.36254746 0.6625838
C 1.1520804 0.4816704 -0.006126768
N 1.0067863 -0.081799306 -1.3477143
C -0.24034788 -0.2433083 -1.5365056
N -1.0982088 0.14924283 -0.51371515
H -0.53834224 1.2756891 1.1930252
H 1.4485911 1.5322556 -0.08499693
H 1.9263881 -0.04802546 0.55508816
H -0.66284746 -0.6258207 -2.4614983
H -1.960609 -0.36315995 -0.39113906
