10

N 0.55046352 0.45526877 0.02446513
C 1.08693923 -0.88393049 -0.23390881
C -0.75831642 0.28126505 0.11070361
N -2.33821846 2.28751609 0.56016546
C -1.63510151 1.39759051 0.36058398
C -0.12877066 -1.78625444 -0.26241892
N -1.20228309 -0.96438741 -0.03991599
H 1.04119200 1.32928862 0.11641910
H 1.60973965 -0.92152734 -1.19485458
H 1.77435584 -1.19482945 0.55876102
