10

N 0.6725363 -0.384597 0.40148944
C 1.1437696 -0.6025431 -0.8010719
C -0.3848754 0.62556016 0.25663128
N -0.42830342 0.8859543 -1.1616123
C 0.48610154 0.22106504 -1.8485833
C -1.6615485 0.13050216 0.80463403
N -2.6518075 -0.27694383 1.238672
H 0.96635014 -0.8179975 1.2647482
H 1.9477249 -1.3207245 -0.93792915
H -0.089947924 1.5397245 0.7830214
