11

O 0.46121705 -1.0918841 -2.3379257
C 0.8098246 -0.14761369 -1.6624835
C 0.26874417 0.10745097 -0.33553767
C 0.4740737 1.0719438 0.62491804
N -0.31184295 0.83610165 1.713517
C -0.98816353 -0.25515947 1.4248171
N -0.6771006 -0.7368038 0.20236747
H 1.5644659 0.5792984 -2.019504
H 1.1456594 1.9201243 0.58720714
H -1.7120247 -0.73151904 2.073945
H -1.0348531 -1.5519392 -0.27132124
