11

O -1.72704556 -0.03895534 -0.21246764
C 1.06278719 0.04702246 -0.96092422
C 0.28897021 -1.03214063 -0.86038606
C 0.11396148 1.07746986 0.84390992
N 0.97360914 1.14616076 -0.09802014
C -0.91796580 0.03014187 0.92783127
N -0.75941640 -1.13141432 0.07928435
H 1.82471718 0.12892200 -1.73135868
H 0.13895671 1.84770934 1.61369963
H -1.41140539 -0.15851103 1.87741478
H 0.41283120 -1.91640514 -1.47898358
