12

O 0.38682738 1.2070467 0.014677333
C 1.1684414 0.35960254 -0.7950423
C -0.5967053 -0.860385 -0.24790864
O -0.6724321 0.35273364 1.8848954
C -0.7264118 0.4690895 0.5029076
O 0.7997166 -0.95625323 -0.4810266
H -1.6518948 1.0096226 0.28112355
H -1.1480118 -0.8427008 -1.2016978
H -0.91585064 -1.7119895 0.35626695
H 0.15330143 -0.098966636 2.1072035
H 2.228629 0.4968368 -0.56443715
H 0.97439086 0.5753636 -1.856962
