12

O -0.19792601 0.03137665 2.02219127
C -0.56386589 0.38518902 0.73097186
C 0.97043717 0.47534138 -0.97926692
O 0.44440457 1.18098761 0.12076993
C -0.68349799 -0.79643515 -0.23727590
O 0.61379446 -0.86977953 -0.80752298
H -1.43876635 -0.60687386 -1.01676392
H -0.89973648 -1.73506241 0.27685627
H 0.63117444 -0.46318935 1.96486052
H 2.06103766 0.55617244 -0.98743058
H -1.48493418 0.96852429 0.82707675
H 0.54787852 0.87374892 -1.91446610
