12

O 0.9706633 -1.5447514 -1.3098133
C -0.23144548 0.13578695 -0.08765797
C -0.1573026 -0.698245 -1.3288345
N 0.524816 1.1895643 1.7047876
N -1.2922463 0.69858557 0.44826385
C -0.7767291 1.3313861 1.5363823
N 0.85677046 0.41467848 0.65600824
H -1.1011506 -1.2423631 -1.4505864
H -0.03217564 -0.04810038 -2.2006242
H 0.80526984 -2.2709084 -0.6959447
H 1.8110863 0.12296653 0.5052641
H -1.3775561 1.9114 2.2227552
