12

O -0.8952816 0.28504768 1.2735167
C 0.292448 -1.3170834 -0.55293316
C 0.10039921 1.2540063 1.224958
N 1.2591408 -0.49055275 0.0014710566
N -0.3650748 0.7219982 -1.044354
C 0.63493437 0.6681806 -0.058595166
N -0.43001708 -0.47643122 -1.4571967
H -1.1497701 -0.7354967 -2.1181512
H 0.5046416 -2.337844 -0.8612843
H -0.49126124 -1.0390587 0.4521574
H -0.28824806 2.2727768 1.0972983
H 0.8280888 1.1944572 2.0431137
