12

O 0.40275484 1.1718056 -2.1693773
C 0.75309116 1.2890902 -0.8142307
C 0.21089566 0.17060944 0.021900332
N -0.7505221 -0.6097897 -0.42738014
N -0.9811645 -1.4171221 0.62580645
C -0.1626997 -1.094888 1.6432099
N 0.60849696 -0.08696818 1.3007852
H -0.4865934 0.80033267 -2.2069683
H 0.40458137 2.2404177 -0.38244033
H 1.8464469 1.2904167 -0.75177693
H -1.6786901 -2.1409469 0.5684341
H -0.16659719 -1.6129572 2.5920377
