12

O -1.01149955 0.85264561 -1.26092891
C 0.37623760 1.12720580 -1.53294454
C 0.65084613 0.14246035 -0.43220419
N -0.60786855 -0.46761642 -0.63476412
N -1.06320789 -0.66824317 0.67101301
C 0.17679818 -0.67107668 1.49292649
N 1.15226258 0.10901718 0.72116175
H 0.67537976 0.83929309 -2.54554173
H 0.64453984 2.15782104 -1.29485990
H 0.01621178 -0.17381283 2.45189929
H -1.55368768 -1.55694808 0.68557240
H 0.54398781 -1.69074589 1.67867027
