10

C -0.73670815 -0.38098501 -1.10968478
N -0.03877926 0.21561107 0.00798223
N -0.18809192 1.44183195 0.42612352
C 1.25076341 0.43173954 1.81208452
N 0.55063093 1.60781612 1.47387713
N 0.82459227 -0.40523378 0.85141875
H -0.01816255 -0.76543236 -1.83766973
H 1.08067239 -1.36896121 0.70396154
H -1.33341518 0.40842660 -1.56597379
H -1.39150199 -1.18481326 -0.76211951
