11

N 0.7865523 1.1153024 -0.15726818
C 0.4888725 -1.107376 -0.2933008
C -0.596676 0.9250659 0.2536616
C 1.4936785 0.0428235 -0.4413282
C -0.82728505 -0.5038498 0.16694556
O -0.71971947 0.16331181 1.4341786
H 0.39425552 -1.6167932 -1.2620244
H -1.7969087 -0.9442164 -0.044620775
H 0.878362 -1.8487171 0.4116382
H -1.3006504 1.7357539 0.099200755
H 1.1995189 2.038695 -0.16708243
