11

N -1.4837348 -0.89296955 -0.14253199
C 0.15346804 0.46906966 -1.1610838
C 0.09919263 -0.45763963 1.1968917
C 0.7865211 0.34082258 0.21522588
C -1.1782871 -0.2366394 -1.1167396
O 0.00758857 0.94346833 1.259521
H 0.012003275 1.5152785 -1.4496444
H -1.6124206 -1.2111646 0.8129744
H 0.76538837 -0.0040230365 -1.9372959
H 0.58739465 -0.9624276 2.032679
H 1.8628858 0.49622485 0.290004
