12

O -1.2611493 -0.6656198 1.233518
C 0.12623721 -0.48562777 1.183803
C 0.5845879 0.70378846 0.34480762
O 0.8530556 0.40588972 -1.0459989
C -0.14946663 0.02595202 -1.8263834
O -1.2888906 -0.18851285 -1.4885631
H -1.5813192 -0.63611645 0.31713876
H 0.66113734 -1.3840674 0.8330983
H 0.45195374 -0.29483828 2.2135527
H 1.5517229 1.0724804 0.69321984
H -0.15834966 1.5039302 0.4021838
H 0.21048081 -0.057258464 -2.8603766
