10

O -0.86621211 1.79817701 0.90430677
C 0.06573986 0.99985286 0.28331492
C -0.27941134 -0.25979003 0.01213911
O -1.48423720 -0.78905133 0.36601034
C 0.59778898 -1.14546944 -0.68729796
C 1.33599439 -1.88410629 -1.28376573
H -0.41502309 2.50326349 1.38288827
H 1.02117520 1.41596196 -0.01149537
H -1.96383372 -0.09809026 0.84747771
H 1.98801898 -2.54074839 -1.81357818
