12

N -2.1303232 0.56064945 -0.0784039
C -0.78598213 0.19849052 -0.041568767
N 0.15337954 0.8193793 0.6362064
C 1.3099346 0.16032426 0.3051945
O 2.4942682 0.5424492 0.8283277
C 1.0841037 -0.86855686 -0.55582833
N -0.30036128 -0.8316348 -0.7653977
H -2.2961535 1.3132813 0.5788498
H -2.7520113 -0.21277902 0.12063957
H 2.3047676 1.2770087 1.4260914
H 1.729877 -1.6103052 -0.9942552
H -0.8114993 -1.3483064 -1.4598556
