12

O 1.3368775 0.09659653 1.1981212
C 0.0070401942 -0.3524911 1.186441
C -0.6584859 -0.12437549 -0.16944918
C 0.005951878 1.116964 -1.3851483
N 0.3007805 -0.2842633 -1.2706367
H -1.1003169 0.9484845 -0.30976745
H -1.5613852 -0.71509445 -0.3473474
H -0.14837193 -0.7800425 -2.035241
H 0.66805166 1.5806948 -0.6248229
H -0.05306829 -1.4321405 1.4044908
H -0.5275664 0.18304485 1.9761693
H 1.730493 -0.23737727 0.37719035
