12

O -0.15530059 -1.0868653 -1.6338052
C 1.6901736 0.7217758 1.3335493
C -0.5106854 0.5713171 0.108084455
C -0.81833977 -0.82592815 -0.4172961
N 0.935427 0.76340216 0.26183885
H 0.77471805 -1.2390726 -1.4370363
H -1.8890512 -0.91421217 -0.62601787
H -0.88509774 1.3223273 -0.59600896
H -0.98263365 0.7285731 1.0836909
H 1.3980668 0.9525227 -0.62421596
H 0.9980711 0.5726863 2.192936
H -0.555348 -1.5665263 0.35428092
