12

O -0.83722465 -0.50674231 -1.70791713
C -0.40569129 0.44291222 0.48798406
C 2.10653264 0.43676422 0.72646960
C -0.94132828 -0.73300927 -0.32026831
N 0.98332439 0.73822205 0.12028079
H 0.08764829 -0.60750433 -1.95545863
H -1.01127248 1.33415582 0.29074125
H 1.05183716 1.25666137 -0.75231417
H 1.81878193 -0.06160376 1.67967888
H -2.00668320 -0.87017276 -0.11053784
H -0.43610425 0.21945126 1.55962429
H -0.40982020 -1.64913436 -0.01828259
