10

O 1.120114 -0.9093756 -0.07543692
C -0.5243029 -0.23700845 1.3134145
C 0.33801535 0.6676771 -1.3444118
N 0.30375332 -0.72591245 -1.2461712
C 0.5899264 0.15633145 0.57810646
N 0.54541534 1.2816164 -0.21620968
H -0.50653344 -1.2156726 1.7833073
H 0.07219893 1.1550976 -2.2759898
H -1.1971238 0.51500446 1.7116873
H -0.7414631 -0.6877579 -0.22829588
