12

C -1.19009560 0.56648190 0.36221963
N -0.31876311 -0.54395799 0.00401709
C 1.05026545 -0.33856077 -0.22197348
N 1.73724243 -0.14619642 0.95408505
C -1.27079548 -0.08080769 -0.97463696
O 1.56440373 -0.34342707 -1.32103618
H -1.93615679 0.34649285 1.12262186
H -0.86712331 0.46355588 -1.82478668
H -0.74534591 1.55644062 0.41475704
H 1.31917195 -0.49065017 1.80397448
H 2.73887987 -0.22072287 0.87554786
H -2.08168308 -0.76864820 -1.19479001
