12

C -0.002335191 0.6882632 -1.4483289
N 0.31147993 -1.0477811 1.6597584
C -1.0333545 0.80870944 -0.38288358
N -0.17869459 -0.3662449 -0.4810918
C 0.8289801 -0.60242957 0.46564338
O 2.0125594 -0.44442075 0.25006527
H -0.60401005 -1.4690374 1.6469296
H 0.8975213 1.2906219 -1.3510677
H 0.987992 -1.4456663 2.2914376
H -0.29920337 0.4413068 -2.4632242
H -2.0827675 0.64199966 -0.6155942
H -0.8381672 1.5046788 0.42835578
