12

C -0.7667482 1.174173 0.0039110007
N -0.18241419 -0.15153404 -0.14621644
C 1.0648671 -0.41171816 0.40223554
N 1.7039907 0.48728815 1.0326185
C -0.8563314 -1.1474813 -0.82134265
O -1.9425316 -1.0217807 -1.3321996
H -1.7412052 1.1587539 -0.4857598
H -0.11489068 1.9195083 -0.45691544
H -0.8700896 1.4138983 1.0653752
H 1.4004842 -1.442844 0.22348565
H 2.588696 0.11671802 1.3596044
H -0.28382698 -2.0949814 -0.84479666
