11

N -0.8665176 1.2084312 1.128615
C -0.028506123 0.77336466 -1.0937397
C 0.41758892 -1.1403874 0.29857853
N 0.90892917 -2.2913005 0.38755134
C -0.5794462 0.1844066 1.7202785
C -0.63046545 1.5611795 -0.20042361
O 0.47195935 -0.4742419 -0.9473491
H -0.979515 2.5427635 -0.48994786
H 0.10757412 1.1185219 -2.1138456
H -0.13981637 -0.84643906 1.7922293
H 1.318215 -2.6362987 -0.48194683
