11

C -1.42371150 -0.72066524 -0.62890754
C -0.00860931 -0.44131033 -0.67988410
O -0.35244607 1.41787908 0.96355554
C 0.51899622 0.72963286 0.13374865
C 0.84853575 -0.65681823 0.55135286
N -2.56467265 -0.91416821 -0.60489619
H -0.96015919 1.93775862 0.42273453
H 0.45255355 -0.62512625 -1.64567149
H 0.34063334 -1.01796850 1.44011789
H 1.29672840 1.32511608 -0.34581851
H 1.85215168 -1.03432975 0.39366823
