11

C -0.8226877 0.7470071 -0.83605206
C 0.4996412 0.624717 -0.12995765
O 0.49197182 0.6851544 1.2898443
C 0.86935985 -0.543062 0.69134176
C -0.052427202 -1.6560805 0.8561167
N -0.77106345 -2.5533772 0.9654321
H -1.1545516 1.7890493 -0.8333267
H -0.7242697 0.42300496 -1.8771665
H -1.5898876 0.13931261 -0.34880018
H 1.3365644 1.160182 -0.5801995
H 1.9173502 -0.81590754 0.8027676
