11

C -0.05585353 0.6903996 -0.7976143
C 0.34305125 -0.8965672 1.0049461
O 0.22714478 1.5057405 0.3113438
C -1.4690655 0.292128 -0.9543934
C 0.84280807 -0.30043593 -0.15680432
N -2.572655 -0.028911252 -1.0920647
H -0.66351396 -1.3192704 0.97301143
H 1.0389818 -1.3656794 1.6964921
H 0.106370725 0.52835774 1.1500962
H 1.900901 -0.2247406 -0.39823517
H 0.30183032 1.118979 -1.7367779
