10

O -1.19268125 0.65820758 -0.57129856
C -0.20584583 1.00257513 -1.37428089
C 0.60546352 -0.52324740 0.77094213
O 1.16893778 -1.11173900 -0.35608096
C -0.84437318 -0.07377417 0.61019773
O -1.71875150 -0.22522663 1.40063900
H 1.19020017 -0.39289690 -1.01868215
H 1.15285934 0.36281874 1.12958644
H -0.73780548 1.56428050 -2.16867845
H 0.58199651 -1.26099791 1.57765534
