10

O -1.468287 0.13558182 0.088648535
C -0.35727626 -0.012322996 0.9813011
C -1.1904219 0.34977007 -1.1818349
O 1.1827314 -0.89759254 -0.7243251
C 1.043578 -0.059834708 0.37694907
O -0.6241412 -0.033608515 2.1391451
H -2.2009773 0.45074382 -1.6269681
H 1.3151164 0.98830926 0.1743602
H 0.61607736 -0.49123374 -1.4098921
H 1.6836009 -0.42981246 1.1826164
