10

O 0.82067645 0.9345274 -1.709842
C -0.018337619 0.81364167 -0.60441726
C 0.21043293 -0.48945048 0.12172691
O 1.0234762 -1.3041335 -0.26105696
C -0.6149481 -0.78634465 1.3655895
O -1.4381375 -0.01901613 1.7917875
H 1.348197 0.122996524 -1.7516578
H 0.13618098 1.6357957 0.11109494
H -1.0788871 0.8579439 -0.8968227
H -0.38865316 -1.7659605 1.8335975
