11

N -1.3916708 0.76666325 -0.16808382
C 0.29056057 -0.32914543 0.4836879
C -0.6569821 0.58665836 -1.2841702
C 0.45758918 -0.12989335 -0.9107752
N 1.1188644 -1.058707 1.3329536
N -0.8271522 0.22406755 0.9299011
H -2.2706468 1.2471582 -0.07384252
H 1.2671736 -0.47463354 -1.5363524
H 0.88277334 -0.8992844 2.3034985
H 2.1033006 -0.90208197 1.1670768
H -0.9738099 0.96919817 -2.2438943
