10

O -0.79406446 -1.7350324 -0.7414591
C -0.29841658 -0.58694327 -0.23393288
C 0.8651776 0.12411122 -0.42252392
C 0.7101149 1.2362409 0.44341066
N -0.43351397 1.2134271 1.1001693
N -1.038554 0.085471556 0.67008346
H -0.16041987 -2.1006901 -1.3706756
H 1.6915386 -0.11603661 -1.0746448
H 1.4024662 2.0520437 0.60463655
H -1.9443285 -0.17259173 1.0249363
