10

O 0.7004965 -0.83930874 1.5630519
C -0.38606983 0.07491581 -1.458826
C 0.6914999 0.078752935 -0.6784045
C 0.16871928 0.13819803 0.71746176
N -1.5879301 0.05276766 -0.6627014
N -1.2948812 0.027126085 0.5479944
H 0.14607835 -0.86409247 2.352661
H 1.7363952 0.08680236 -0.953613
H -0.4784976 0.08246385 -2.5367768
H 0.30418953 1.1623745 1.1091528
