11

O 0.13016696 -2.126199 -0.14049917
C -0.57577676 0.5754376 -1.1066297
C 0.30002013 0.67714757 0.101801306
O 0.06835176 -0.24102522 1.1389719
C -0.03021019 -1.5710583 0.9061899
N 1.1420187 1.5952086 0.26841873
H -0.2694153 -2.065724 1.8573852
H 1.6115409 1.4979756 1.1691089
H -0.40681636 1.457681 -1.7217153
H -0.34291992 -0.3321045 -1.6685839
H -1.6269599 0.53266066 -0.8044476
