11

O 0.11301799 -0.05344043 1.2783235
C 1.2264997 -0.104259044 0.42058042
C -0.88097286 0.079922184 0.3461542
O 1.7805467 -1.2157964 0.061054975
C -0.1149069 0.25661606 -0.93189394
N -2.1213474 0.035089694 0.5368616
H 1.8588985 0.7903063 0.53271264
H 0.98366505 -0.7107845 -0.7871516
H 0.06917565 1.3030955 -1.1949414
H -2.3438148 -0.1106958 1.5208553
H -0.5707614 -0.27005357 -1.7825556
