11

O 1.30150733 1.02810888 1.05259518
C -0.99629927 -0.12661115 0.60413472
C -0.62710257 -1.22163387 -0.38588964
C 0.58550280 -0.73042926 -0.68088772
C 0.37357558 0.44550714 0.21315965
N 0.67375294 1.81728339 -0.01046153
H 1.38784400 1.85952042 -0.74352256
H -1.18060310 -2.08903258 -0.72279175
H 1.40517993 -1.04544126 -1.31614552
H -1.06766983 -0.43463626 1.65089111
H -1.85568770 0.49736502 0.33891810
