11

O 0.37917376 0.2549979 1.9105206
C -1.1310037 0.21623287 -0.21839264
C 0.72077626 -0.81058985 -0.40419587
C -0.4209495 -0.7939666 -1.1076897
C 0.20259136 0.22052598 0.54203075
N 0.8548836 1.3640292 1.0794302
H 1.6585991 -1.3485982 -0.47963443
H -1.404272 1.167078 -0.6868503
H 1.863952 1.2045201 1.0057669
H -0.7503843 -1.3049957 -2.0035515
H -1.9733664 -0.16923377 0.3625658
