11

O -0.81468415 2.1595063 -0.70118076
C -0.42041403 1.084655 -0.3120158
C 0.34739926 0.00070024375 -1.0763228
C 0.5407906 -1.086637 -0.05581261
C -0.016908083 -0.6942289 1.0914669
N -0.5863915 0.58263284 0.96328706
H 1.2855312 0.4186736 -1.458814
H -0.23574856 -0.31485802 -1.9491206
H 1.0469235 -2.0251224 -0.23069674
H -0.07602882 -1.2106562 2.0401306
H -1.0704693 1.085335 1.6890788
