11

O -1.00765764 0.34982993 0.77981629
C -1.70275979 0.81081391 1.78472060
N 0.86022151 -0.17275274 -0.38246927
C 0.01392259 -0.74618347 -1.42407484
C 0.42442215 0.42193485 0.74076873
O 1.07235185 0.94549418 1.60170639
H -0.70417272 -1.44774491 -0.99226915
H -0.94415407 1.22868786 2.49400900
H 0.66059041 -1.28801905 -2.11855610
H -0.53275601 0.02725372 -1.97244028
H 1.85999184 -0.12931431 -0.51121154
