11

O -2.010043 0.98946804 1.3816625
C -1.0790942 0.61109424 0.7261343
N -0.97718436 -0.551042 -0.013521314
C 0.4069231 -0.8066997 -0.35819995
C 0.94262505 0.6307733 -0.32442924
O 0.080812834 1.3103892 0.58978057
H -1.608427 -1.2958947 0.23233533
H 0.9058215 -1.4448972 0.38056734
H 0.5089947 -1.2606773 -1.347062
H 0.8608647 1.1110619 -1.3045202
H 1.9687068 0.7064242 0.03725248
