11

O -0.6629958 0.13682358 1.1347177
C -0.4799659 -0.5396543 -1.4364465
N 0.6650119 -0.031385653 -0.68766373
C 0.6489289 0.3575085 0.59831476
C -0.9576221 0.38397065 2.382764
O 1.5452529 0.82129264 1.2437979
H -0.112192966 -0.9137186 -2.3950331
H -1.2237614 0.24231587 -1.6182655
H 1.543747 0.12972729 -1.1565661
H -0.9565132 -1.3623248 -0.8975389
H -0.009888847 0.775445 2.8319197
