9

O 1.9385741 -0.14367877 0.6713338
C 0.63603294 -0.070690565 0.35138294
N -0.3432162 -0.21000645 1.2709538
N -1.2545638 0.11959798 -0.60754997
N -1.4966191 -0.092601225 0.6782077
C 0.07741529 0.14555915 -0.8842787
H 0.48572683 0.30647445 -1.8670683
H -2.0297887 0.23967677 -1.239132
H 1.9864382 -0.29433137 1.626151
