9

O 0.86260894 -1.63892775 -0.89399329
C 0.27133333 -0.64341757 -0.21306603
N -0.26420070 -0.82488858 1.01340042
N -0.76264772 0.30502595 1.42609147
N -0.54671941 1.19851325 0.47118442
C 0.10487209 0.66439216 -0.59725568
H 0.81896425 -2.42776101 -0.33497603
H -0.86158057 2.14565476 0.60562337
H 0.37736976 1.22140868 -1.47700852
