11

N -1.3937297 0.26893312 1.3040235
C -0.49321273 0.19639842 -1.1777072
C -0.17557137 0.18185401 1.1901115
O 0.38085788 -0.8642479 -0.7699071
C 0.7820037 -0.8440672 0.6093251
C -0.42892084 1.1609225 -0.0009037809
N 0.47750342 1.8014759 0.53596836
H 0.6033881 -1.8305295 1.037471
H 1.8293588 -0.548333 0.701633
H -1.4990782 -0.18846051 -1.3588295
H -0.082598984 0.66605425 -2.0711842
