11

N -1.9997414 -0.51864207 -1.9158381
C -1.5756356 0.027878257 -0.9917167
C -0.99914575 0.69572175 0.19465294
O -0.31359336 -0.20574443 1.0290412
C 0.8046586 -0.8221065 0.43787587
C 1.8548297 0.15512085 0.07919232
N 2.65304 0.940871 -0.19951682
H -1.8044254 1.1186509 0.7973554
H -0.34429944 1.5104226 -0.1454033
H 1.1974423 -1.5189552 1.1800078
H 0.52686995 -1.3832171 -0.4656504
