11

N 1.3467054 0.5689378 1.8384792
C 0.6397359 0.26683182 0.83481544
C -0.76684105 -0.17653999 0.8552736
C -1.1572171 -0.39591604 -0.3960367
C -0.013741781 -0.10718884 -1.3249128
O 1.0556234 0.29696465 -0.46842265
H 2.2841556 0.8440444 1.5507152
H -1.3288238 -0.2844265 1.7740366
H -2.128807 -0.7290344 -0.7385953
H -0.23195167 0.7036477 -2.028823
H 0.30116224 -0.98732054 -1.8965296
