10

N -0.5573857 1.1381243 1.0222015
C -0.70407593 0.4177064 -0.1125568
O -1.6349031 0.50972986 -0.8878136
C 0.41458094 -0.5724233 -0.38675532
O 1.3824718 -0.57545197 0.5607157
N 0.46112645 -1.3321582 -1.3905535
H 0.23935635 1.0104247 1.6232426
H -1.2690791 1.8110554 1.2578219
H 2.0326548 -1.2374355 0.28022355
H -0.36474633 -1.1695716 -1.966526
