11

C -0.0002845451 1.0243753 0.5195297
C -0.1542756 1.6156967 1.7505423
C 0.49947977 0.4030651 -0.49954498
C -0.11462341 -0.72389287 -1.2015358
O -1.200598 -0.647465 -1.7527256
N 0.6560853 -1.8612484 -1.21415
H 0.36229935 1.2486144 2.634101
H -0.88257104 2.4114344 1.8829141
H 1.63515 -1.797565 -0.99718815
H -1.14842 0.92290366 0.70933187
H 0.34775838 -2.5959182 -1.8312744
