12

C 1.0719483 0.19247949 0.78181297
C -0.31754607 0.5939217 0.34958258
N -1.0177878 1.5503477 0.8083267
N -0.90518105 -0.17019452 -0.66754955
C -0.3920132 -1.2473578 -1.3407633
O -0.9935535 -1.8424107 -2.206994
H 1.4154613 0.8617506 1.5743355
H 1.782763 0.2544592 -0.0497598
H 1.0879732 -0.8322892 1.1687621
H -0.5167716 2.0488117 1.538578
H -1.8402153 0.12167884 -0.9298202
H 0.6249229 -1.5311971 -1.0265108
