12

C -0.4143875 -1.1676644 -0.16431749
C -0.13562347 0.8356442 0.5276068
N 1.2431288 0.43529016 0.3447749
N -0.91428804 -0.29453003 0.9444158
C 0.4487607 -0.1000339 -0.78710717
O -0.62874466 2.0100152 0.36077064
H -0.5079206 1.261712 -0.6981497
H 1.7585038 1.2466853 0.00054804137
H 0.11855727 -2.0444045 0.22287403
H 0.86197954 -0.079929054 -1.7926451
H -1.2337604 -1.4851972 -0.81524026
H -0.5962055 -0.6175876 1.8564694
