11

C -0.5880989 -0.044881932 0.8638875
O 0.44452018 -1.4825532 1.5725411
C 1.0129914 -1.2492957 0.45310742
C -0.15965544 0.9868907 -1.2042181
O -0.27251613 1.0741541 0.21517812
H 0.056298766 1.9951911 -1.5570179
H -1.2969364 -0.70638853 0.37459674
H 2.051025 -1.7079389 0.44346315
H -1.1044675 0.62576085 -1.6313711
H 0.64483815 0.28180823 -1.429732
H -0.7879988 0.22725354 1.8995652
