11

C -1.3075426 0.10139713 -0.7825055
O 0.06855192 -0.013958561 -1.0841361
C 0.82008946 -0.5293794 -0.018300429
C 1.0216515 0.49390054 1.0868057
O 1.2856336 0.21033935 2.2272742
H -1.7457937 -0.877095 -0.5378732
H -1.4890152 0.78738403 0.058403574
H -1.795643 0.5013901 -1.672279
H 1.8098174 -0.7725912 -0.4223596
H 0.3879092 -1.4494745 0.40374577
H 0.9443411 1.5480874 0.74122477
