11

C -0.13070619 -0.009933612 -1.1638677
C -1.0034242 -0.4550635 1.2596776
C -0.041991267 0.028744396 0.2217914
N 1.6915112 1.0478818 -0.54629296
N 0.91617775 0.6528882 -1.672772
N 1.1179677 0.6213544 0.5523517
H -1.6668134 0.3594178 1.5689849
H -0.8854065 -0.45337194 -1.7993245
H -1.6179427 -1.2714347 0.8732045
H 2.079765 0.28053474 -1.4341127
H -0.45913744 -0.8010175 2.1403599
