12

N 0.65135331 0.58760451 -0.64192342
C 1.49508739 0.53219751 0.53436762
N 0.67547516 0.17585104 1.44472422
C -0.40284907 -1.22374843 -0.43070102
C -0.37111768 0.05534234 0.37647785
C 0.52965100 -0.73829699 -1.24715536
N -1.59603700 0.67870415 0.72949602
H 1.08737642 -1.07777774 -2.11244544
H 2.55751026 0.75538819 0.60047439
H -0.99412388 -2.12483929 -0.35854910
H -1.43281609 1.57151066 1.18163331
H -2.19950931 0.80806373 -0.07639909
