12

N 2.167253 0.39348942 -0.6948288
C 0.8856149 0.16426125 -0.28135115
N 0.7066982 -0.8447632 0.5858281
C -0.5414754 -1.0249695 1.0063914
C -1.6083196 -0.23978005 0.5862618
C -1.2922602 0.7656114 -0.3221785
N -0.061369557 0.9823709 -0.769701
H 2.2876208 0.9654101 -1.5151706
H 2.8344884 -0.34217092 -0.5303377
H -0.6934503 -1.8429085 1.709629
H -2.619052 -0.4008895 0.94032216
H -2.0657477 1.4243383 -0.71486473
