9

O 1.6804947 0.92962533 0.6063777
C 0.56346804 0.30859387 0.19385295
N 0.43109995 -0.24625316 -0.9985404
N -0.8087573 -0.72746783 -0.95601916
N -1.4820213 -0.53133744 0.15539062
C -0.6253947 0.13674273 0.92512757
H 2.3242671 0.8957524 -0.11301629
H -1.2072184 -1.2180984 -1.7390811
H -0.8759382 0.45244262 1.9259081
