11

O 1.2556657 -0.6531156 -2.1052508
C 0.62302464 -0.34590742 -1.116899
N 1.1409539 0.033799898 0.0995542
C 0.12941761 0.336669 1.0830327
C -1.1398754 0.09302705 0.3065359
C -0.8607085 -0.29293886 -0.9362748
H 2.1330464 0.08901303 0.25656515
H 0.19184557 1.3739593 1.435248
H 0.19460681 -0.31898913 1.9605913
H -2.1199124 0.22805403 0.7490294
H -1.5480644 -0.5435714 -1.7321322
