11

O 0.745911 0.20737574 -0.9071625
C -1.1917996 0.3186709 0.36861694
N 1.9514012 -1.1897924 0.52405953
C 0.91185486 -0.54115033 0.22293903
C -0.32883054 -0.4554425 1.016352
C -0.5590363 0.79020095 -0.90808636
H -0.4482939 -0.9666777 1.9626968
H 2.6677907 -1.0859674 -0.19452687
H -0.4580852 1.8801833 -0.9554614
H -2.1941915 0.5932317 0.6699298
H -1.0967207 0.44936785 -1.799357
