12

C 0.079871394 -0.07188027 0.040961504
N -1.1845047 0.53059566 0.12538691
C 1.7211282 -1.5685227 0.6974971
N 0.41316402 -0.980229 0.85295045
C -1.4430683 1.4399495 -0.7197963
O -2.6121469 2.0786698 -0.74319273
H 0.7526662 0.2868495 -0.76050526
H 2.285972 -1.4355954 1.6270638
H -0.7813293 1.810355 -1.5059199
H -3.1494634 1.7129955 -0.024382658
H 1.6089151 -2.6481526 0.54676425
H 2.308795 -1.1550349 -0.13682699
