12

C -0.93081408 0.18218086 -1.94278219
N -1.08471917 -0.10172929 -0.71647780
C 0.04942269 -0.00345732 0.10377622
N -0.02679918 -0.26295738 1.33761470
C 1.18180908 -0.15884013 2.11828825
O -1.93213170 0.11847901 -2.81945823
H -2.71977415 -0.16337021 -2.33028033
H -0.00701290 0.50262671 -2.42960340
H 1.38228458 -1.12621842 2.59252629
H 0.99323101 0.30733431 -0.38235471
H 1.02422747 0.56365939 2.92697540
H 2.07027594 0.14229261 1.54177561
