12

C -1.1233454 -1.0158823 -1.6988394
N -1.0001179 -0.5853894 -0.32146764
C 0.054860417 0.021178398 0.007730484
N 0.24721509 0.4697285 1.310268
C 1.3549193 1.149434 1.746015
O 1.5076704 1.5390785 2.8793013
H -2.000558 -0.53532684 -2.1470215
H -0.2442424 -0.7906231 -2.3195374
H -1.3024284 -2.095594 -1.7222658
H 0.89303476 0.24973184 -0.6640963
H -0.4891521 0.28857535 1.98414
H 2.1021438 1.3050892 0.94577307
