12

C -2.3430953 -0.20095107 0.11975374
N -1.0330627 -0.62946165 -0.3215083
C 2.356447 0.3541207 -0.020358318
N 1.2477144 -0.2631999 -0.3217146
C -0.049816877 0.072909296 0.053921483
O 3.3277922 -0.2806846 -0.5563977
H -2.8147402 -1.0131375 0.68322706
H -2.3267717 0.70142746 0.7504554
H 2.4817474 1.2527392 0.5809851
H -2.9718583 -0.007452896 -0.7555345
H -0.14591287 0.970416 0.68471795
H 2.271557 -0.9567251 -0.8975472
