11

C 1.4609237 -1.5082923 0.11487909
N 0.59579843 -0.9205391 1.037951
C -1.2540301 1.4854861 -0.72054857
O 2.2282276 -2.3830767 0.43261585
C -0.3327846 0.07017927 0.87500286
O -0.3220042 0.44590256 -0.3929077
H -0.6913139 2.3284934 -1.1242689
H 0.6800806 -1.2888628 1.9759502
H 1.369823 -1.1014805 -0.90445775
H -1.938874 1.0979155 -1.4780388
H -1.7958466 1.774275 0.18382294
