11

C -0.95857877 -0.90572846 -1.4494857
N 0.30566594 -0.471398 -1.072383
C 0.5249921 0.7002941 1.5835403
O -0.44319698 1.2249587 0.20647456
C 0.59430695 0.6168159 -0.25017715
O -1.1275544 -1.8366545 -2.2007742
H 1.0298495 -0.26490897 1.6896405
H -0.3961055 0.67938596 2.1727052
H -1.770767 -0.3242595 -0.988487
H 1.0740305 -0.95952505 -1.5106376
H 1.1673576 1.5410199 1.819584
