10

C -0.99008244 0.38429698 -1.3128371
O -0.5390669 -0.39386716 -0.19423513
C 0.5232275 0.095083 0.43425754
O 1.1170362 1.103962 0.1445359
C 0.96105397 -0.76490706 1.6152396
O 0.4064716 -1.7742186 1.949191
H -1.8481909 -0.15581785 -1.7083015
H -1.2801024 1.3866861 -0.9864994
H -0.20078608 0.4631635 -2.0654023
H 1.8504394 -0.34438094 2.1240516
