10

N -0.03832206 1.97619061 0.45211544
C -0.26633176 0.64864558 0.22575909
N -1.42861863 0.07754369 0.43153319
O -1.14655957 -1.27978121 0.14084614
C 0.12067544 -1.31224431 -0.20511254
O 0.60765210 -2.49566645 -0.53274238
N 0.74946760 -0.17579754 -0.18646184
H 0.72173410 2.36307999 -0.08552511
H -0.86212573 2.55355208 0.50355810
H 1.54242835 -2.35552231 -0.74397021
