10

N -0.9058347 -0.42311472 1.1106856
C 1.1647412 -0.47600305 0.442061
N -1.6861262 0.9078 -0.66639614
O 0.39436552 -0.8907447 1.4224367
C -0.7030756 0.2193673 -0.014266271
O 2.4405696 -0.80959815 0.51920855
N 0.58271605 0.21398912 -0.49196053
H 2.87005 -0.42150134 -0.25731683
H -2.6287088 0.66391397 -0.40812737
H -1.528697 1.0158917 -1.6563246
