11

N 0.74021935 1.736913 2.3392017
C 0.25110635 1.322035 1.3793732
C -0.34751868 0.7809619 0.14528401
C 0.57994807 -0.11719566 -0.6990713
C -0.4028605 -1.2322125 -0.31222212
O -1.2430774 -0.3019204 0.40049684
H -0.8369057 1.60129 -0.39085996
H 0.59660953 0.14389485 -1.758701
H 1.598861 -0.22172526 -0.32317954
H -0.9375137 -1.7108735 -1.1362796
H 0.0011318093 -2.001167 0.3559574
