11

N 0.9184801 -0.74701726 -1.4504789
C 0.53528404 0.9712014 0.06890465
C 0.14767948 -0.24626493 -0.32521206
C -0.3975866 1.1641995 1.1777592
C -1.186845 0.05379457 1.2765138
O -0.8649368 -0.8773617 0.3251617
H 1.4145933 0.33790284 -1.2525305
H -0.4828781 2.0226777 1.8344281
H 1.5011663 -1.5639637 -1.2642298
H -1.9920481 -0.23821154 1.9340316
H 0.4070912 -0.87695676 -2.3243484
