11

N 0.5602537 -1.412678 -1.3633533
C 0.1747638 -0.44101092 -0.44982275
C -1.022816 0.10261402 -0.10424864
C -0.71144015 1.1322068 0.8560995
C 0.6299225 1.1206169 1.0116581
O 1.1897515 0.15622886 0.21300517
H 1.431938 -1.8598061 -1.1124144
H -0.16423883 -2.0964785 -1.5374349
H -1.9961617 -0.17431293 -0.47988698
H -1.4137466 1.7835101 1.3543847
H 1.3217739 1.6891099 1.6120135
