11

O -0.98095724 1.22439345 -0.54587608
C 0.21517948 0.70365531 -0.03387116
C 0.06329510 -0.79107985 0.24295422
O -1.04794942 -0.88785784 1.11456091
C 1.30293227 0.93081544 -1.00466527
N 2.18249989 1.07492319 -1.74120567
H -1.41220770 -1.77833556 1.08014069
H -1.67702920 0.81801118 -0.00682282
H 0.50435003 1.20455292 0.90334744
H 0.97654524 -1.19107579 0.69964700
H -0.12665856 -1.30800272 -0.70820921
