10

C -0.93262947 0.3800831 2.3646607
C -0.4739723 0.20888637 1.26583
C 0.066636585 0.0068258103 -0.033142123
C 1.3414962 0.11855353 -0.5493069
N 1.3051924 -0.19860472 -1.8656505
N 0.08691612 -0.49983665 -2.1999595
N -0.66575336 -0.38018492 -1.1101247
H -1.3307109 0.5335619 3.3445785
H 2.257406 0.40277642 -0.055069383
H -1.6545814 -0.5720608 -1.1618166
