10

C -0.13139507 -0.31291294 -0.15078123
C -1.153323 0.70913815 -0.025097655
C 1.1819462 0.096042246 0.31908754
C -2.0246575 1.5325499 0.068174765
N 2.9997957 -1.5144249 0.1932211
N 2.1586897 -0.7635768 0.2542119
N -0.33504432 -1.4842829 -0.6258938
H -2.8041759 2.2599096 0.14755112
H 1.4185703 1.0673321 0.725522
H -1.3104061 -1.5897747 -0.90599567
