10

C -1.3158072 -0.11762655 -0.038529936
C -2.5010767 -0.2958058 0.015325308
C 0.10594786 0.1113191 -0.12761992
C 0.96369827 -0.5210205 0.8462112
N 0.6747231 0.8461239 -1.0220066
N 2.2045891 -0.17032419 0.5533836
N 2.6794984 0.49376422 -0.27644584
H 0.034967665 1.2668538 -1.692041
H -3.55591 -0.45574096 0.06482607
H 0.70936954 -1.1575432 1.676897
