12

O -0.12709734 -0.59860784 1.3761766
C -1.2357174 0.43323383 -0.47286707
C -0.33671045 -0.7146567 -0.032264467
O -0.29690498 1.6659588 0.27719837
C 1.0280979 -0.76583385 -0.6872527
O 2.063214 -0.6748059 -0.059288613
H 0.7940003 -0.88591707 1.5241724
H -1.0130918 2.238945 0.5771195
H -0.05917625 1.1208477 1.0876961
H 1.0277848 -0.85483336 -1.7890971
H -0.9662414 0.67394173 -1.5164505
H -0.8781576 -1.6382722 -0.28514248
