12

O -0.05371447 -0.51325052 1.41493316
C -0.31788654 -0.72345243 0.02671866
C 1.01967267 -0.78189672 -0.68169516
O 2.07687027 -0.62546050 -0.10554304
C -1.26564260 0.37142009 -0.44552008
O -0.33113347 1.67223149 0.18547925
H -0.84357483 -1.67446270 -0.14477240
H 0.88028179 -0.76751482 1.54091277
H -0.04525219 1.18564579 1.01738903
H -1.04990904 2.24499174 0.47958266
H 0.97642648 -0.94046959 -1.77484039
H -1.04613805 0.55221785 -1.51264421
