12

N -2.1325471 0.5612518 -0.07913955
C -0.78587955 0.19763508 -0.039490186
N 0.1521851 0.81764996 0.6379084
C 1.3094682 0.16166931 0.30548242
O 2.4945962 0.5444446 0.826041
C 1.0851971 -0.8669476 -0.5568567
N -0.29872966 -0.8339059 -0.7649064
H -2.2940805 1.3130418 0.58033985
H -2.7560854 -0.21154134 0.11665578
H 2.3035223 1.2744005 1.4285288
H 1.7336524 -1.6071994 -0.99466014
H -0.8112993 -1.3504984 -1.4599034
