10

O 1.0352436 0.7515129 -1.6454414
C -0.8270185 -0.028182887 1.4144967
N -0.3590907 0.91250426 0.22976863
C -0.27442008 -1.1748788 0.9010142
C 0.45651546 0.15372406 -0.59902173
N 0.5251147 -1.0748628 -0.23977314
H 1.5644296 0.07682629 -2.0936267
H -1.4631271 0.6228581 0.3329944
H -0.26188484 1.9123538 0.34680846
H -0.39576194 -2.1518548 1.3527808
