10

O 0.05994344 -1.449772 1.6642562
C 0.038238477 -0.47703907 0.73784494
N 0.13732952 0.80105406 0.9513878
C 0.056438074 1.3647498 -0.31058943
C -0.089863285 0.40671957 -1.2649624
N -0.10088317 -0.7999466 -0.5687237
H 0.16642857 -0.99580425 2.5129733
H 0.11049492 2.4363275 -0.44343668
H -0.18450788 0.4445607 -2.3397
H -0.19361866 -1.7308496 -0.93904996
