17

C -1.076798 -1.4784968 1.0980363
N 1.3406217 -0.053366166 0.42658627
C -1.8820598 0.654558 -1.4155325
O 0.045328673 1.0175339 -1.1372529
N -0.97210836 -0.41397494 0.1330949
C 0.14039838 0.18296768 -0.18042643
C 2.4956467 0.773564 0.14209355
H 2.4427824 1.758552 0.622817
H -1.6033384 1.0385267 -2.3938055
H -0.28901258 -2.236715 0.9778241
H -2.038024 -1.9869499 0.95788455
H 1.2908388 -0.47658426 1.3375379
H -2.4848402 -0.24657802 -1.493924
H 2.5541291 0.92356914 -0.937973
H -2.3091094 1.3994132 -0.7558225
H 3.3981898 0.26041052 0.48015517
H -1.0526453 -1.11643 2.1387074
