17

C -1.92922314 -0.12354107 1.35226304
N -1.18152271 0.35428301 0.20427958
C 0.14290084 0.03602656 -0.00608196
O 0.71677726 -0.40651700 1.13025471
N 0.81219854 0.15117389 -1.08401768
C 2.10951934 -0.67856080 1.03012564
C 0.13887682 0.68087258 -2.25156548
H -2.88655153 0.40391787 1.37904391
H 2.66566013 0.21909411 0.74324664
H -0.26372859 1.69282194 -2.09483865
H -1.70854136 0.46391296 -0.64474584
H -2.11752487 -1.20399872 1.32057489
H -1.38552087 0.10582404 2.27034005
H 2.40871574 -1.00851852 2.02710037
H 0.86074251 0.74002382 -3.07111124
H 2.30237255 -1.46127813 0.29154127
H -0.68515091 0.03446412 -2.59640946
