17

C -1.5312301 2.239941 0.13861549
N -0.6650461 1.1789806 -0.34110174
C -0.11394947 0.31897086 0.59505236
O -0.23068386 0.5229791 1.795753
N 0.60049605 -0.74121386 0.07954927
C 1.0438901 -1.7864492 0.97950333
C 0.8341514 -0.9394521 -1.3367538
H -2.4662874 1.8637792 0.5742465
H -1.0088243 2.8087306 0.9123502
H -1.7637081 2.908534 -0.69214386
H -0.92730737 0.7687979 -1.2260407
H 0.5299747 -2.7370932 0.77773327
H 0.8237538 -1.4731195 1.9999851
H 2.1236963 -1.9512473 0.87906927
H 0.99678934 0.022343472 -1.8337786
H 1.7431759 -1.5356295 -1.4640106
H 0.011108859 -1.4688514 -1.8380287
