11

N 1.52644911 0.31117224 0.35957901
C 0.15988208 0.10968470 0.09587199
O -0.35683712 -1.08380279 -0.43363031
C -1.41447305 -0.93083344 0.51169766
C 0.85250592 1.14358889 -0.67274686
O -0.84822497 0.25574938 1.05352485
H 2.10197850 -0.42074561 -0.04230828
H -1.46036691 -1.74530062 1.23834534
H 1.04875971 0.92821281 -1.72133655
H 0.76724257 2.19394789 -0.40805474
H -2.37691560 -0.76167361 0.01905768
