11

N 1.59591 0.0035890804 -0.09607571
C 0.8384957 1.0974272 -0.7613992
O -0.6740505 -0.9230554 -0.42851025
C 0.19902052 0.06519041 0.05408795
C -1.3686669 -0.77545804 0.80897164
O -0.4470279 0.19625695 1.2870343
H 1.8759414 -0.7271471 -0.7411015
H -2.37695 -0.37605765 0.6625156
H 1.0433608 2.0858612 -0.35938638
H 0.6833225 1.0404931 -1.8370955
H -1.3693553 -1.6870997 1.4109591
