11

N -0.07231518 3.1155143 -1.0125957
C -0.09443395 0.027211716 0.62666196
C 0.20856786 2.0116184 -0.79069895
C 0.5323335 0.6439719 -0.52321047
C -0.061487682 -1.4225339 0.62455463
O -1.1623123 -1.0157285 -0.23734395
H 1.5860869 0.3842734 -0.63825595
H 0.7548477 -1.9155115 0.0954461
H -0.6859984 0.55026555 1.3723519
H -0.43172002 -1.9717467 1.4862756
H -0.57356864 -0.4073352 -1.003185
