10

O 0.21108334 2.2121925 0.3934182
C 0.118125595 0.8847576 0.16258854
C -1.0027602 0.19356427 -0.21393429
N -0.56837296 -1.1191524 -0.3122595
C 0.7460308 -1.1403296 0.00040491478
N 1.1952657 0.061082784 0.2938422
H 1.1260633 2.3776681 0.6541115
H -2.020447 0.48921728 -0.40942806
H -1.1355935 -1.9096172 -0.57033086
H 1.3306048 -2.049383 0.0015874141
