10

O 0.6241158 -1.5765291 1.2967439
C 0.70487326 -0.232649 -0.73743343
C 0.16369247 -0.60749155 0.49385265
N -0.16557147 0.82827395 -1.242343
C -1.0338725 0.98505014 -0.22760496
N -0.9020229 0.14082582 0.7985438
H 0.04957995 -1.5939579 2.0728269
H -1.790007 1.7601682 -0.24785645
H 1.3881996 -0.7458532 -1.3989112
H 0.9610127 1.0421627 -0.80781806
