11

C -0.7570568 0.7879816 1.2690221
C -0.14285891 -1.5275517 -1.2928119
N 0.781945 0.5298654 -0.27931967
C -0.13847432 -0.5105034 -0.4293768
C 0.40070292 1.2833325 0.8430054
O -1.1273154 -0.2957657 0.50242096
H 0.6484413 -1.6212056 -2.0258749
H -1.4411364 1.072911 2.050653
H 1.7447813 0.40462765 -0.5475367
H 0.97384673 2.1315396 1.1832078
H -0.94287556 -2.2552311 -1.273389
