12

O 1.1069447 0.51608646 1.4548924
C -0.44776043 -0.19622834 -1.2265297
C -0.45878354 -0.7081297 0.19415519
O 0.24809073 1.3846134 -1.0817481
C 0.919646 -0.4718308 0.76627576
O -1.4002352 -0.03385972 0.9823405
H -0.7310723 1.1587034 -1.4813006
H -0.6694002 -1.7853706 0.147729
H 1.7267284 -1.1643678 0.4917154
H -0.9031985 0.38122302 1.7089517
H 0.2801425 1.6032945 -0.1303875
H 0.32889777 -0.68413395 -1.8260938
