12

O -0.6659525 1.4879216 -0.8116536
C 0.18532924 0.41570273 -1.1334432
C 0.4828545 -0.40142405 0.12111582
O 1.0390774 0.4533666 1.084238
C -0.791231 -1.0123522 0.6678141
O -1.1273543 -0.8232294 1.8119287
H -0.25693098 1.9155221 -0.04428274
H 1.1379392 0.7568526 -1.5620021
H -0.32604718 -0.19906372 -1.8832363
H 1.1681162 -1.2287526 -0.12950392
H 0.53075683 0.2893489 1.898046
H -1.3765577 -1.6538924 -0.01902105
