12

O 0.27983869 1.47782992 -0.45339093
C -0.01890889 0.12003600 -0.63317403
C 1.21576017 -0.70573112 -0.33617241
O 2.27464958 -0.17303362 -0.10235756
C -1.14955932 -0.25616441 0.32256314
O -0.76755713 0.01989764 1.64594604
H -2.05328598 0.29502361 0.02560617
H 1.24627534 1.52126237 -0.34037069
H -0.32495583 -0.09494817 -1.67109463
H 1.10404993 -1.80725972 -0.35551563
H -0.44028781 0.93226079 1.63829311
H -1.36601904 -1.32917312 0.25966712
