9

N -2.1953921 0.30733964 -1.4342351
C -1.2767682 0.44886974 -0.74815863
C -0.10413145 0.62265563 0.0889298
C 0.47151497 -0.57828623 0.7548118
N 1.1735519 0.058877237 -0.3443327
H -0.036289804 1.5928491 0.57420266
H 0.92926717 -0.4587634 1.73328
H -0.025238635 -1.5300231 0.58500606
H 1.063486 -0.46351856 -1.209504
