13

C -0.5376494 0.6043888 -0.7141248
N -1.1299711 -0.5936059 -0.119547576
C 0.8613168 0.4957772 -0.766376
O -1.2417102 1.5799452 -0.9302707
C 0.04256215 0.05817212 1.4882005
O 1.5065542 -0.7393837 -0.83848506
H -0.7138632 -0.439616 2.0883605
H 1.4280957 1.3549626 -1.1203295
H -2.135225 -0.5228161 -0.016733622
H 0.9867571 -0.47730178 1.4517914
H -0.78071994 -1.4901897 -0.42764506
H 1.6225071 -0.9543275 -1.7766727
H 0.09134548 1.1239947 1.6818328
