13

C -1.63851138 -0.07524218 -0.14424429
N 1.94790092 0.27927950 -0.32337105
C 0.71072853 0.82244975 -0.20769076
O 0.38843672 1.91204339 -0.64502738
C -0.28428891 -0.06945495 0.54720346
O 0.22951324 -1.37682429 0.77377397
H 0.10379140 -1.88789949 -0.03638345
H -1.56219769 -0.53011628 -1.14029461
H 2.15195225 -0.58057129 0.16111423
H -0.38547972 0.36917581 1.54574203
H -1.99826708 0.94768171 -0.27105627
H 2.69372030 0.83945223 -0.70662864
H -2.35729888 -0.64997384 0.44686296
