13

C -0.17188215 -0.2491821 0.54170156
N 1.7542264 0.8391017 -0.44213346
C 0.45756966 1.0043678 -0.08105205
O 0.6622775 -1.3939433 0.4066426
C -1.5774189 -0.47212192 0.006149252
O -0.17445241 2.0357401 -0.21950392
H -0.21702039 -0.060532577 1.6197042
H 2.226301 -0.015761958 -0.193015
H 0.53574085 -1.7480525 -0.4832754
H -2.0413158 -1.321106 0.5164486
H -1.5519723 -0.6831298 -1.0707345
H 2.2796614 1.6400173 -0.7573773
H -2.181715 0.42460325 0.15644532
