13

C 0.5845664 -1.5842587 -1.1657671
N 0.23209396 -0.6444275 -0.12578681
C -0.05308985 0.65992105 -0.3788725
O -0.0770646 1.1703372 -1.4852394
C -0.3369757 1.4770387 0.8774712
O -0.5664091 0.69375026 2.0372527
H -0.11142499 -2.4283876 -1.184351
H 0.5323473 -1.0544436 -2.1174245
H 1.6016423 -1.9635503 -1.0248908
H 0.27298906 -0.9126746 0.8461665
H -1.1670971 2.158219 0.6554223
H 0.5477812 2.0880497 1.0849028
H -1.4593592 0.34042647 1.9811168
