11

O 2.200848 1.2505593 -0.8902166
C 1.0465308 1.1014897 -1.2406404
C -0.48382312 -0.9737798 1.2229714
C -1.2309577 -0.049339563 -0.710604
N -1.5480561 -0.9005382 0.41666633
C 0.09597953 0.2923023 -0.49209413
N 0.53686464 -0.332305 0.66416514
H 1.5039272 -0.32563537 0.96107745
H -0.4225396 -1.5203601 2.15438
H 0.6351205 1.5664479 -2.154069
H -2.3338947 -0.10884124 0.06836351
