10

O -1.0043719 -2.0849028 -0.2700807
C -0.70155543 0.3968084 -0.58504033
C -0.40171605 -1.046473 -0.108009785
N 0.52173287 0.9017173 0.07660151
C 0.8136644 -0.63730496 0.5460842
H -0.74637544 0.59419763 -1.6591768
H 1.1978915 -0.8219447 1.5407087
H -1.587968 0.8009826 -0.0889797
H 1.4359738 0.29107407 -0.2527133
H 0.47272414 1.6058455 0.80060637
