10

O 1.3342788 -1.2083739 -1.6091138
C 0.5922527 -0.7101581 -0.77923375
C 0.56564724 0.748142 -0.19354585
N -0.6199415 0.30068412 0.64438426
C -0.49493745 -1.0435816 0.023576034
H -1.4747889 0.82558644 0.44279173
H 1.4041399 1.0456451 0.4394421
H -0.44793883 0.36204344 1.6507025
H -1.1420861 -1.8770977 0.25139263
H 0.28337425 1.5571103 -0.8703957
