10

N -1.0498772 0.26301655 0.36027303
C -0.6594981 -0.96732527 -0.100441046
C 0.66903627 -0.8860277 -0.4370234
C 1.0943937 0.44462916 -0.16816612
C 0.010580315 1.1297498 0.32329798
H -1.9752837 0.49425536 0.67828417
H -1.356374 -1.7917639 -0.14904876
H 1.2770016 -1.6870068 -0.83372325
H 2.0863311 0.84570676 -0.3213624
H -0.09631015 2.1547658 0.6479098
