10

N 0.33325484 1.36751668 0.03668819
C -0.57892961 -0.81805087 0.13882104
C 0.65004392 -0.88257951 -0.39478008
C 1.15502835 0.49734024 -0.42927951
C -0.85126431 0.62455927 0.44723536
H -1.72622621 1.01586928 -0.08762649
H -1.26525830 -1.63597532 0.32336119
H 1.18884043 -1.75660246 -0.73852258
H 2.13091899 0.78816926 -0.81066428
H -1.03640827 0.79975318 1.51476718
