11

C -0.39321736 0.6259333 1.5749896
C -0.59367174 -0.92321074 -0.8988438
C 0.67471415 -0.18047512 -0.56222725
C 0.59123135 0.899968 0.52648044
N -1.1728959 0.39050776 2.392824
O 1.7255241 -0.36283448 -1.1244246
H 1.5856636 1.0299859 0.9619089
H -0.8832966 -1.5581304 -0.055009343
H -1.4201939 -0.22390433 -1.0645778
H -0.4365337 -1.5399433 -1.7859052
H 0.3226759 1.8421034 0.034785043
