11

C -0.13994316 -0.69750098 -1.22743339
C 0.74246518 0.23954633 -0.44189692
C 0.17965481 0.80281329 0.87171869
C -0.73188878 -0.10157044 1.57512759
N -1.44610528 -0.82989053 2.11514755
O 1.83511909 0.59363545 -0.80829925
H -0.25806267 -1.63801263 -0.67921104
H 0.30707352 -0.89480489 -2.20374103
H 1.01790212 1.07742630 1.51772739
H -1.14343754 -0.27547995 -1.34798787
H -0.36277788 1.72383782 0.62884816
