11

C 1.3523208 -0.76412594 -1.3738686
C -0.33653042 -0.3369256 0.3310579
C 0.71558154 0.1892647 -0.5081387
C -1.0309281 0.6364649 1.2642817
N 1.725993 -1.8919412 -1.6128472
O -0.64934707 -1.520267 0.32260323
H 0.902477 1.245532 -0.65200675
H -2.0597303 0.7648108 0.915368
H -1.0712333 0.18973926 2.2617426
H -0.5429677 1.612868 1.3120381
H 0.9943643 -0.12542008 -2.2602305
