11

N -1.6633296 -0.55316734 -1.1137656
C 1.3932467 -0.8307839 0.36349186
C -0.46895018 1.0113684 0.3871868
O 0.6160292 -0.85922545 -0.6999954
C -0.60542643 -0.2028554 -0.5355223
O 0.75448817 1.0185069 1.0628529
H 0.9552331 -0.15007631 1.363703
H -1.3311149 0.9889485 1.0671806
H 2.4369423 -0.94316196 0.050377477
H -0.56613135 1.8989397 -0.25303343
H -1.5209874 -1.378493 -1.6924762
