11

N 0.58639765 0.5486356 -2.0057976
C -0.53918415 -1.0049267 0.8973442
C 0.19402878 0.19299527 -0.86419857
O -0.57484215 0.3309674 1.3013103
C 0.25656193 1.0314299 0.39439228
O -0.35936773 -1.003591 -0.5199304
H 1.2931042 1.0934842 0.7557227
H -0.13686498 2.036669 0.2367813
H 0.30466294 -1.5456377 1.3519151
H 0.4668663 -0.1998403 -2.6838467
H -1.4913629 -1.4801855 1.1363075
