11

N -0.6341854 -0.71481264 -1.9386128
C -0.32501557 -0.2781737 -0.80094916
C 0.7084463 -0.8758689 0.13101672
O 0.43987054 -0.24585389 1.3695226
C -0.12846968 0.9901458 1.0494225
O -0.8471601 0.8140336 -0.17214574
H -1.3394622 -0.12931809 -2.3796306
H 0.5907096 -1.9550512 0.23754069
H 1.7219381 -0.6482927 -0.23061955
H -0.82631356 1.2804437 1.8362951
H 0.63964176 1.7627481 0.8981601
