9

O -1.1536978 -1.2882481 -1.0827982
C -0.3797744 -0.4734024 -0.3469757
C 0.4762283 -0.7915978 0.652983
O 1.0288216 0.39497638 1.0829008
C 0.46966454 1.3326267 0.3161538
N -0.37674636 0.8880904 -0.553783
H -1.6351 -0.72610945 -1.7049801
H 0.79771477 -1.6918449 1.1462098
H 0.77288955 2.3555093 0.49028984
