9

O -0.36753148 -1.98468539 0.23240877
C -0.14041106 -0.71725993 0.52416901
C 0.34567757 0.31609538 1.11434725
O 0.83004695 1.71634807 -1.26878256
C -0.14027809 1.01080366 -1.21253730
N -0.68394232 0.50104543 -0.00588008
H -0.76756146 0.75758913 -2.08810254
H 0.07603484 -2.54739808 0.88365658
H 0.84796525 0.94746185 1.82072111
