9

O 0.533348 1.6957413 -1.5569954
C -0.85721385 -0.8527925 0.39667222
N -0.77214867 0.3353739 -0.2317037
N 1.2505635 0.6628756 0.43638468
C 0.43100256 0.9049432 -0.4845273
N -0.010956965 -1.2594646 1.2722216
H -1.7605358 -1.407561 0.11616247
H -0.21183392 -2.2100942 1.5755581
H 1.3977752 2.1309783 -1.5237726
