9

O 0.7549659 0.24954988 -2.0775645
C 0.26464224 0.11058678 -0.8361892
N 0.98975986 -0.31326538 0.17675517
N 0.0781729 -0.28357822 1.1814097
C -1.1059805 0.14671986 0.72074133
N -1.029432 0.4094964 -0.5675498
H 1.6850318 -0.0096862735 -2.052143
H 0.34718385 -0.5614022 2.1104906
H -1.9843439 0.25157908 1.3440499
