11

O -0.42638364 -1.6392703 0.37184244
C -0.55630785 0.40751714 0.47343126
C -0.42331943 -0.6769576 -0.54598236
N 0.60363936 1.043782 0.26085216
C 0.97006994 0.06069803 -0.8027016
O -1.3611174 0.5315087 1.4829096
H -1.8494717 -0.31470448 1.4744339
H -1.0821279 -0.74296343 -1.4318618
H 1.2055676 1.3716167 1.0078002
H 1.1125709 0.53346497 -1.7769943
H 1.80688 -0.5746917 -0.5137295
