11

C -0.47334334 -1.3177936 -0.45651665
C -1.5696813 0.388469 0.82446617
C 1.5260655 0.49912673 -0.38768214
N -1.5726922 -0.4454529 -0.23347351
C 0.5006548 -0.50614345 -0.3148692
O -0.611361 0.8134654 1.4672557
H -0.594916 -2.3567607 -0.73452264
H -2.5969646 0.69731253 1.078432
H 2.485417 -0.010045003 -0.5407294
H 1.3528371 1.1625081 -1.2421228
H 1.5539839 1.0753139 0.53976256
