11

N -0.28262788 0.060009524 -2.1140022
C 0.6128176 -0.94964886 1.0404645
O 0.05406264 1.401405 1.1869615
C -0.59127283 1.0780133 0.067946255
C -0.020108784 0.11647073 -0.88650036
O 0.9200626 -0.687055 -0.20104045
H -0.99293554 0.47046936 1.0128126
H 0.2426928 -0.6823991 -2.5762064
H 1.4848926 -1.0618012 1.6837553
H -0.24699213 -1.5999122 1.2179921
H -1.1805912 1.8544483 -0.43218216
