11

N -0.75621598 1.77276517 -0.99279871
C 1.12677596 -0.59447248 0.99164273
O -1.04033592 -1.63904466 -0.40141227
C -1.21416683 -0.51797539 -0.79988216
C -0.37554429 0.69094661 -0.44153955
O 0.66898934 0.62425778 0.38751970
H 1.99195458 -0.29344764 1.58254264
H -2.03215685 -0.23694078 -1.48864663
H 1.42305153 -1.32511936 0.23587988
H -0.15328477 2.54654957 -0.71156469
H 0.36093324 -1.02751884 1.63825879
