11

C 0.10830567 -2.14430049 -0.00290393
C -0.15400061 0.09831466 -0.21181564
C -0.69952064 1.29504418 -0.89887802
N 0.75642222 -1.47456000 0.96899656
C 0.61630587 -0.08947814 0.86863275
O -0.45321529 -1.14180631 -0.72779215
H 1.28220862 -1.95424392 1.68187598
H -1.79402515 1.27351207 -0.90522447
H -0.36027199 1.32847603 -1.93903053
H -0.36850413 2.20274156 -0.39172109
H 1.06629557 0.60630029 1.55786061
