11

C -1.4239358 -1.1939067 0.46690163
N 0.1570328 0.082344316 0.048887987
C -0.6494837 0.03790412 -1.022001
N -1.6709648 -0.7668132 -0.7954264
C 1.384074 0.8216999 0.26473582
N -0.33245537 -0.7109156 1.0246574
H 2.194633 0.12472207 0.48687044
H 1.6191189 1.3842617 -0.64064896
H -0.46164107 0.59528357 -1.9299647
H -2.0698218 -1.8848073 0.99335176
H 1.253444 1.5102274 1.102636
