10

N -0.15769683 -0.7494931 -0.84648895
C 1.060333 -0.28712773 -0.41991463
C 0.83664423 0.59498453 0.6097318
C -0.5711701 0.6651334 0.81002116
C -1.1576496 -0.17591569 -0.10370756
H -0.29742202 -1.4112666 -1.5899054
H 1.9765825 -0.6243674 -0.8810844
H 1.5920161 1.1341139 1.1641134
H -1.0867519 1.2675058 1.5447339
H -2.1948853 -0.41356692 -0.2874992
