10

N 0.40984799 0.69228388 0.81082058
C -0.05876021 -0.76451398 -0.82549057
C 0.97149656 -0.28279613 -0.12559436
C -1.15447448 0.78049941 0.62036262
C -1.30186449 -0.13123856 -0.37824005
H 0.02315532 -1.51521498 -1.60414842
H 2.03280945 -0.48950790 -0.15013862
H 0.76981725 1.63743784 0.67599981
H 0.57149966 0.45229522 1.78958492
H -2.26352698 -0.37924462 -0.81315578
