12

N -0.034235887 0.4002773 0.9464062
C -0.4042908 0.5231723 -0.50971025
C 0.7674334 1.0564635 -1.2436867
N 1.660506 1.4749762 -1.8409648
C 0.5527352 -1.0051228 1.020383
N -0.038729995 -1.6804531 0.06466481
C -0.72852784 -0.9195132 -0.79135126
H -0.89384675 0.47204086 1.5034901
H 0.61816674 1.1232843 1.2547693
H -1.2386405 1.2207403 -0.64084285
H -0.9841219 -1.2696966 -1.77786
H 0.72355217 -1.396169 2.0147028
