10

O -0.12722896 -1.1800163 -1.0858185
C -0.0645871 -0.48045757 0.11275639
C -1.3127643 0.37424225 0.33208767
O -1.4861786 1.0052944 1.3421025
C 1.143592 0.4427474 0.14724995
O 1.9267226 0.45276028 -0.77064145
H 0.6726467 -0.93059945 -1.5788268
H 0.026841296 -1.1518595 0.9839338
H -2.0228739 0.3762661 -0.518262
H 1.24383 1.0916222 1.0354183
