10

O 0.68130535 0.60691595 1.3709707
C 0.33925885 1.4661317 0.5468004
C 0.19471525 -1.2152655 0.21226151
O -0.90569055 -1.5791719 -0.4012605
C -0.060801566 0.964643 -0.7635822
O -1.1075007 0.969631 -1.3761518
H -1.0684948 -1.0504019 -1.2038051
H 1.1276214 -1.1413364 -0.3384495
H 0.2189139 -1.5463077 1.2404866
H 0.58067256 2.525162 0.71272993
