13

C 0.13992660 1.17839932 0.50958247
C -0.01585702 -0.15660404 -0.17026656
N 0.90247211 -1.03960253 0.07080454
O 0.43908093 1.07570776 1.87657227
C -1.15390243 -0.48287618 -1.07885444
O 1.92981188 -0.90608050 0.81763087
H 1.21172704 0.48594969 1.91654072
H -0.79957083 1.73228941 0.41867265
H 0.80771933 -1.95499973 -0.38251800
H 0.91330582 1.74783745 -0.03377744
H -1.21817481 0.24374776 -1.89807189
H -2.10333814 -0.44203858 -0.53088872
H -1.05320036 -1.48172997 -1.51542609
