13

C -0.5489223 0.025439337 1.7075796
C 0.02574713 0.17096972 0.3301453
N 1.1386486 0.7853083 0.23239939
O 1.5606343 0.8756107 -1.1041073
C -0.71707374 -0.41453978 -0.8581493
O 0.06013841 -1.3124659 -1.6102887
H 0.08274143 0.53082806 2.439957
H -1.5586058 0.4502897 1.7503836
H -0.6314522 -1.0342697 1.9717381
H 2.4180284 1.3085585 -1.0278971
H -1.1016736 0.41365188 -1.4737782
H -1.5827909 -0.9791075 -0.49445632
H 0.8545804 -0.82027346 -1.8635257
