10

O -1.88177038 1.01810238 1.50917012
C -1.76879657 -0.03003675 0.92256124
C -0.72349245 -0.23720955 -0.10098592
N -0.35918896 -1.08403393 -0.94803521
O 1.98256527 -0.70245926 0.74005668
C 1.78700923 0.07149957 -0.16599693
C 0.44723254 0.21651042 -0.82249629
H -2.42816995 -0.89941472 1.07898558
H 2.58289245 0.73056257 -0.56254015
H 0.36171854 0.91647927 -1.65071903
