10

O -0.5290292 -0.64679366 -2.0672407
C 0.5802553 -0.42113218 -1.6468214
C -1.0664604 -0.15941156 1.678664
N -0.1804764 1.4699315 -0.09821762
O -0.77297604 -1.2130654 2.187731
C 0.8178488 0.33683458 -0.37557915
C -0.2630544 0.42359427 0.58419013
H 1.848436 0.5219133 -0.08086263
H -1.9267769 0.45693672 1.9869337
H 1.4922332 -0.7688075 -2.1687973
