11

N 1.45919523 -0.31789659 0.66627318
C 0.45894602 -0.40617719 1.45142277
C -0.60284316 0.17973981 -0.45787717
N -1.56678377 0.46912043 -1.22422628
C 0.90879024 0.06233137 -0.63806978
N -0.77631655 -0.13348679 0.88833152
H 1.34595802 1.01244755 -0.96974890
H 0.52447217 -0.67367144 2.50192074
H -1.67446687 -0.16180050 1.34174475
H -1.23803324 0.66170357 -2.16861579
H 1.16108200 -0.69231022 -1.39115472
