10

O 1.1712615 0.24315305 -1.2805699
C 0.25006273 0.5437196 -0.28070876
C -1.1538451 0.11584272 -0.70434695
O -1.3293738 -0.5099489 -1.7195231
C 0.5226567 -0.1269046 1.0053967
C 0.6939851 -0.70508313 2.0439672
H 0.7167929 -0.35902467 -1.892482
H 0.24057683 1.6307113 -0.11185137
H 0.8671423 -1.2207384 2.9633615
H -1.9792593 0.38827297 -0.023243448
