10

O 1.73583253 -0.23995144 -0.01203840
C 0.49624253 0.33429017 -0.28098619
C -0.31896482 0.58926330 0.92256573
O 0.05644711 -1.68947365 -1.45826429
C -1.02105890 0.75429633 1.88282639
C -0.33145378 -0.58272820 -1.17959693
H -1.62820791 0.90258076 2.74917011
H 0.64565913 1.28764580 -0.80913531
H -1.30030478 -0.18598447 -1.53081050
H 1.66580895 -1.16993857 -0.28373084
