11

N -1.2026968 1.3023821 0.05773417
C -1.501207 0.13072652 0.8161326
C 0.1932023 -1.0723397 -0.17801364
N -0.9541027 -1.0133333 0.70350766
C 0.8111892 0.28658026 -0.38136753
N -0.10044946 1.383161 -0.5377645
N 2.0597498 0.48922175 -0.42367312
H 2.2342968 1.4748175 -0.63538194
H -0.13615827 -1.4887968 -1.1401489
H 0.9405836 -1.7557031 0.23089007
H -2.3444076 0.26328376 1.4880852
