11

N 0.48443887 -1.3407247 -0.58245444
C -0.8207481 0.564859 0.24747187
C -0.0540086 -0.11079199 -0.79221934
N -0.30118895 0.37488344 1.5125972
C 0.6172687 -0.54815423 1.5858889
N 0.10412679 0.72957057 -1.7691356
N 0.8960947 -1.5021971 0.6303544
H 0.43866694 0.43413168 -2.6843705
H -0.5781281 1.4971408 -0.86661124
H -1.907106 0.6215607 0.18608458
H 1.1205837 -0.72027797 2.5323944
