11

N -1.43669143 -0.28972163 0.53297132
C -0.44091125 -0.97768994 -0.26200776
C 0.86538742 -0.22759327 -0.29138173
N 1.99744694 -0.78909014 -0.22124335
C -1.23337136 0.95450628 0.71027958
N -0.22975043 1.75652709 0.08853932
N 0.77723566 1.19912117 -0.41282955
H -0.27666381 -1.98125808 0.13628905
H -0.83685692 -1.09302897 -1.28060636
H 2.73077392 -0.08355200 -0.32675988
H -1.91659865 1.53177939 1.32674953
