11

O 0.26888755 -0.688603 2.6323407
C -1.0082544 -0.38611048 0.67027736
C -0.99905366 -0.022701535 -0.62043893
C 0.22700395 -0.36392677 1.4640887
N 1.3976521 0.06067609 0.7807981
C 1.3183285 0.38903892 -0.45160055
N 0.17670189 0.37517342 -1.2076719
H 0.20873637 0.6476129 -2.1745937
H 2.20856 0.71400255 -0.9887053
H -1.9222112 -0.70653075 1.1545833
H -1.8763514 -0.018631479 -1.2590783
