10

O -1.34272889 0.52525535 -2.24685188
C -0.48750822 0.18654228 -1.48587874
C 1.11619683 0.03450257 1.21195134
N 0.54403754 -1.29448473 1.14327809
N -0.51499584 -1.20034379 0.48670678
C -0.66543554 0.19291985 0.04280894
N 0.43201483 0.92856079 0.62169281
H 0.52143409 -0.15892414 -1.80964023
H 2.04748665 0.19447222 1.73912217
H -1.65050159 0.59149950 0.29681077
