10

O -0.89478886 -0.38612556 2.265414
C -0.6365004 0.71152997 0.004033202
C 0.6412109 -0.24789484 -1.3373333
N 1.4514978 0.2765553 -0.36526558
N 0.6784406 0.957817 0.4524576
C -0.35211557 -0.49274465 1.2266076
N -0.6379221 0.020620124 -1.1815351
H 1.0439353 -0.8328211 -2.1532042
H -1.4683083 1.3314767 0.32225505
H 0.17455088 -1.338413 0.76657075
