10

O -0.02470342 -1.3362336 1.6788391
C -0.57950854 0.9102183 -0.82141584
N -1.0157628 0.3561622 0.3888994
C 0.61028147 0.3142307 -1.3572268
C -0.091128565 -0.5168525 0.6308575
N 0.8978331 -0.5517917 -0.30820403
H -0.81207633 -1.1690024 2.2156346
H -1.2204583 1.5927265 -1.3693247
H 1.712427 -1.1424311 -0.25381812
H 0.5230964 1.542974 -0.8042409
