10

O 0.06067038 -1.4513541 1.6628172
C 0.03746216 -0.4770833 0.7388174
N 0.13703635 0.8013286 0.95166844
C 0.057698376 1.3653648 -0.31053978
C -0.089836344 0.40692854 -1.2642554
N -0.101579644 -0.7982549 -0.5672241
H 0.1660434 -0.99751174 2.5114248
H 0.11200361 2.4363854 -0.44584158
H -0.18805341 0.44304898 -2.3381197
H -0.19144481 -1.7288525 -0.9387472
