10

O -1.0346173 1.4375015 -0.71735805
C 1.0524682 0.0972823 0.29520154
C -0.40014106 0.40083742 -0.09058692
O 0.5857159 -1.036077 1.0474555
C -0.8132777 -0.9517234 -0.14171234
O -1.4978797 -1.8539 -0.3922687
H -0.76301074 1.4646974 -1.644034
H 1.7155569 -0.23227334 -0.51302826
H 1.5336543 0.8530603 0.91924345
H -0.3784686 -0.17940538 1.2370877
