10

O -1.3111527 1.3942243 0.5939474
C 0.829859 0.86010903 0.045565464
C -0.5496286 1.1716499 -0.4484117
O 1.5803359 1.7803371 0.26346776
C 0.26528186 -1.4256924 -0.16117181
O 1.2454376 -0.4102036 0.0740108
H 0.8210259 -2.3623033 -0.21069756
H -2.1734364 1.7116456 0.2841284
H -0.25601867 -1.2512853 -1.1065927
H -0.45170403 -1.4684812 0.66575396
