10

O 0.043085653 1.9003514 -1.442135
C -0.8439059 -0.16419002 0.9313614
C 0.007952595 1.1073068 -0.5435675
O -0.83572197 1.1750003 0.54571193
C 0.8476813 -0.07044359 -0.28174463
O 0.97281384 -0.9583771 -1.267338
H -1.4932015 -0.80667883 0.33967546
H 1.792399 -1.4545318 -1.1378429
H 0.47293672 -0.45079055 0.84447575
H -0.96403986 -0.27764663 2.0114038
