10

O 1.3176643 -0.9128232 0.4886677
C 0.4065611 0.13902079 0.36499575
C 0.0073992684 0.44584423 -1.0779219
O -1.3899882 0.18078388 -0.76029944
C -1.0830946 -0.2055708 0.50800747
O -1.8033459 -0.6581537 1.3409698
H 1.3267586 -1.2032031 1.4092396
H 0.68682444 1.0248104 0.95133454
H 0.3891646 -0.28084975 -1.7975192
H 0.14205642 1.4701412 -1.4274745
