10

O 2.0573678 1.0654012 -0.61525726
C 0.4860234 -0.77152455 0.056547616
C -0.37065044 1.4324709 -0.2257991
C 0.97868514 0.631373 -0.33008632
O -0.76978886 0.93683654 1.0499953
C -0.9075796 -0.21083325 0.2490829
H 0.9230471 -1.1944972 0.96707934
H -1.1598997 0.3369353 -0.81173545
H -1.8344538 -0.75234264 0.43284205
H 0.59724915 -1.4738191 -0.772669
