10

O 1.7500947 -1.1317827 1.013413
C 0.8023684 -0.61129886 0.50111
C 0.508055 -0.085243806 -0.92888707
C -0.7214199 0.5832523 -0.30871066
O -1.5217233 -0.46508887 0.19680913
C -0.47317964 0.026277922 1.0324621
H 0.2949357 -0.8189165 -1.7076278
H 1.2982242 0.5985914 -1.2570037
H -1.1982465 1.5229892 -0.5625858
H -0.7391086 0.3812199 2.0210204
