10

O 2.1946366 -0.58759654 0.96346015
C 1.2478728 -0.09339372 0.42030075
C -0.93808943 0.3462863 -0.43946573
C 1.2488713 1.3062394 -0.26487058
O 0.044206545 1.4479965 -0.6993458
C -0.14902438 -0.7112496 0.28704026
H -0.065004244 -1.6502185 -0.2656311
H -0.5341389 -0.9341377 1.2845869
H -1.7366803 0.81355065 0.13701946
H -1.3126497 0.06252336 -1.4230943
