10

O 1.60893979 -1.29600743 1.34967857
C 1.02997518 -0.52950708 0.63350998
C 1.69212394 0.68175699 -0.08956124
C -0.64554545 0.63823506 -0.60743993
O 0.72269247 1.23724581 -0.73121205
C -0.46191301 -0.56380585 0.28148839
H -0.68251396 -1.51192855 -0.21506590
H -0.95530543 0.42497553 -1.63062667
H -1.26393359 1.43566962 -0.19499266
H -1.04451989 -0.51663412 1.20422110
