11

N 0.92298883 1.1844394 1.9252669
C 0.61213154 -0.5708969 0.3366838
C -0.18857917 0.63845307 -0.31628066
C 0.6738128 0.050789613 1.6399362
C -0.8270221 -0.4925488 -1.1345766
O -0.24959153 -1.4992832 -0.26143244
H -0.98205316 1.0252502 0.31563517
H -1.9187173 -0.5716724 -1.1596891
H 0.71840835 1.5802318 0.776256
H -0.41448274 -0.60250604 -2.142373
H 1.6531043 -0.74225706 0.02057396
