11

N 0.752707 -0.91689366 -0.054366287
C -0.65190226 0.8726151 -0.21734032
C -0.06919034 -0.14372782 0.7614104
N -0.20099309 -0.35296363 2.00341
C 0.68247044 -0.4375339 -1.3504447
N -0.084262624 0.56559235 -1.5316147
H -0.39552924 1.8974506 0.07429774
H 1.3009993 -1.689744 0.2857801
H -0.8489139 0.31387106 2.4198825
H -1.7455606 0.806956 -0.2533886
H 1.2601755 -0.91562176 -2.1376262
