11

N -1.08943396 1.18694753 -0.34772432
C 0.59353149 -0.90703026 1.09901574
O 1.20350476 0.35301058 0.84509698
C -0.48649266 0.15230929 -0.98990584
C 0.72327112 -0.38865469 -0.26819813
O -0.86760321 -0.34824753 -2.02975034
H -1.86121116 1.64469906 -0.80858272
H 1.26974998 -1.69011555 1.43919274
H -0.37610987 -0.85636771 1.59172685
H -0.59443449 1.65625725 0.39407456
H 1.48522811 -0.80280797 -0.92494603
