10

O 1.832995 -0.1589017 0.7791383
C 1.1355329 -0.8091695 0.033530317
C -0.11741843 -0.26826113 -0.5616018
C -1.0611115 0.38693595 0.39334375
N -0.29335108 1.1799756 -0.5374964
H 1.3988906 -1.8481737 -0.24556305
H -0.50626844 -0.7836964 -1.4358045
H -2.1269138 0.3222776 0.19066763
H -0.77394724 0.39561066 1.442987
H 0.511592 1.5834025 -0.059201352
