9

O -1.3196517 -0.65951943 0.88522273
C -0.59894973 0.2994503 0.15542752
C 0.86079544 0.19668666 0.34042943
C 2.0440855 0.07621138 0.50852823
C -0.9285259 0.23164633 -1.2943099
N -1.201684 0.14898583 -2.4129906
H -1.004589 -1.537468 0.63431174
H -0.9494264 1.2683582 0.5258163
H 3.097946 -0.024351308 0.65756464
