9

O -1.32441748 -0.65516783 0.86252181
C -0.60977198 0.29755008 0.14497880
C 0.85196363 0.18712829 0.32219033
C 2.03210658 0.06960756 0.50173829
C -1.18346068 0.16029252 -2.39964686
N -0.91797544 0.23501717 -1.25790310
H -0.97541090 -1.53232100 0.65324397
H -0.95781626 1.26518200 0.51532544
H 3.08478273 -0.02728883 0.65755141
