10

O 0.8197473 0.93363094 -1.7106779
C -0.015553692 0.81395483 -0.6056677
C 0.20736335 -0.4902731 0.12422456
O 1.0184857 -1.3025001 -0.26038715
C -0.6163249 -0.7865123 1.3663343
O -1.4428856 -0.02231284 1.7900248
H 1.3459728 0.12232621 -1.7555486
H 0.14287984 1.6348723 0.110859014
H -1.0766214 0.8598183 -0.89335626
H -0.38306323 -1.7630043 1.8341947
