10

O 0.10566566 0.8509424 0.4554982
C -0.004413927 0.90142727 1.7864869
C 0.6741112 -0.37132758 -1.4591031
O -0.1918766 -0.0409439 2.5049946
C -0.017233271 -0.45158422 -0.12680843
O -0.27526915 -0.4711675 -2.3557842
H 0.531762 -1.1852963 0.4762138
H -1.0763918 -0.7420458 -0.16435416
H 0.13591163 -0.4344263 -3.2346528
H 0.11773442 1.9444222 2.1175091
