10

O 0.79792725 0.11920317 -2.27960390
C 1.09654124 -0.45983030 -1.14343579
C -0.13655698 -0.34108096 -0.29209875
O 0.20194978 0.56974199 0.75984017
C -0.53863885 0.47319953 1.86817460
O -1.43899882 -0.30146120 2.03761980
H 1.57084147 0.05250570 -2.86354279
H -0.18073803 1.20958525 2.60436575
H -1.03540108 0.01443615 -0.81486185
H -0.33692580 -1.33629938 0.12354253
