12

O -1.2471253 -0.47238454 0.2722651
C -0.76805234 0.35782924 -0.78175956
C -0.34693807 -0.43527806 1.2931265
O 0.031528395 0.66129327 1.8595434
C 0.69895196 -0.08453041 -0.93369704
O 1.1418357 -0.46601865 0.36562902
H 1.3313817 0.71538043 -1.3313352
H 1.0240949 0.48874533 1.1281482
H -1.3725958 0.15256229 -1.66597
H -0.40909016 -1.3632698 1.8687745
H 0.7750649 -0.961401 -1.5849116
H -0.859056 1.407072 -0.48981366
