12

O 0.3626041 1.0564803 1.695184
C 0.4666029 0.6478625 -0.7271597
C -0.9170741 -1.0513172 -0.41334182
O -0.14279023 -0.9960613 0.76834196
C 0.69486374 0.14210235 0.70503145
O -0.8555257 0.21581243 -1.0042882
H -1.9583174 -1.2761097 -0.17013486
H -0.5075883 -1.8195906 -1.087734
H 0.51087874 1.7366269 -0.8025531
H 1.1783913 0.18868454 -1.4306221
H -0.56351954 1.3050952 1.5664726
H 1.7314742 -0.14958529 0.9008034
