10

O 0.98513347 1.1057193 1.5182096
C 0.28180897 0.66225284 -0.6709054
C 0.1499952 0.5226418 0.73926646
C -0.4594759 -0.69324416 -0.7075584
N -0.6158004 -0.5947715 0.7916156
H -0.43109915 -1.3544999 1.4371504
H 0.15509443 -1.5554415 -0.9824649
H 1.4273807 1.0964493 0.31469357
H -0.07060866 1.5324022 -1.216547
H -1.4224287 -0.7215082 -1.2234597
