10

O -1.98334900 0.01228576 0.69397059
C 0.17430632 -0.93367801 -0.21424942
C -0.70529236 -0.04727382 0.28469299
C 1.17570645 0.20226224 -0.27490167
N 0.13696333 1.06848707 0.37801677
H -2.39104445 -0.84884460 0.54253425
H 0.22546915 -2.00734272 -0.32563685
H -0.14921953 1.88947099 -0.14766849
H 2.07495065 0.10959707 0.34002804
H 1.44150930 0.55503561 -1.27678656
