9

O -1.1174444 0.3656656 -1.0530549
C 0.07559541 -0.09233359 -0.5134493
C 0.48581865 0.74287796 0.7048604
O -0.23024765 1.627596 1.0957035
C -0.0035890453 -1.5060166 -0.066231176
N -0.05707969 -2.5932684 0.31758717
H -1.4795954 0.99915785 -0.40967044
H 0.88003355 -0.029679067 -1.2604034
H 1.4465085 0.4860003 1.1846582
