10

O 0.4793925 -2.0018523 -0.47904572
C 0.60135293 -1.4997655 0.7665046
C -0.13323148 0.03772415 -0.5811248
N 0.018582689 -1.0346873 -1.3169501
O -0.7006236 2.1725945 -0.30657518
C -0.6354914 1.2596595 -1.2601259
C 0.22861569 -0.2063931 0.78200936
H 0.9627727 -2.1951656 1.5096879
H 0.20377797 0.48654905 1.6060838
H -1.0251482 2.9813373 -0.72046417
