10

O -2.3951209 -1.1400633 -1.0476756
C 1.3546625 0.7142367 0.5140828
C 0.89521545 -0.2986025 1.2877523
N 0.50347406 0.869726 -0.56066525
O -0.23221444 -0.7865075 0.7211492
C -0.4045498 -0.03606824 -0.38186914
C -1.5668772 -0.28784424 -1.2555352
H 2.223835 1.3399265 0.6426373
H 1.2168757 -0.7697258 2.2033541
H -1.5953004 0.39492247 -2.1232307
