11

N 0.68075264 -0.089433685 -2.0379782
C 0.114973 0.64462143 0.6546359
C -0.4535351 -0.5127176 -0.017060162
N -0.050966933 0.83682644 2.008883
C 0.08653693 -0.92120314 -1.2561975
N 0.64656174 1.4341893 -0.1753677
H -0.04442311 1.8008928 2.3137093
H 1.2166945 -0.58010864 -2.7532127
H -0.01874718 -1.9855652 -1.4972984
H -0.7613784 0.2582564 2.433709
H -1.4164683 -0.8857581 0.32617742
