11

O -1.59404149 0.05317912 -0.92120236
C -0.85173566 0.95254115 -0.05121478
O -0.60891344 -1.99180168 -1.33758521
C -0.61566905 -0.89864165 -0.87224984
C 0.30575142 -0.03921926 -0.02230916
C 1.78185227 0.02240685 -0.01881555
O 0.69321037 -0.57657601 1.27366294
H 0.88950602 -1.52237432 1.18276445
H -1.37384343 1.09770638 0.89568040
H -0.64447914 1.89742192 -0.55448660
H 2.01836160 1.00535747 0.42575554
