11

O 2.349286 -0.29535586 -0.8612932
N 1.4512117 -0.49626353 0.17177856
C -0.5919313 0.57658654 -0.9092092
C 0.2451528 -0.12687548 0.11834049
O -1.7186674 0.50339913 -0.010105213
C -0.95889425 -0.17366984 1.0109224
H -0.75445306 0.022736395 -1.8407776
H 2.5093873 -0.85559726 0.29173818
H -0.29295835 1.6075913 -1.1327822
H -0.8876856 0.4106939 1.9338596
H -1.3504477 -1.1732454 1.2275283
