11

O -1.2748753 -0.1761955 1.9304228
N -1.1657674 -0.76579523 0.67487186
C -0.2381704 -0.23087484 0.006844257
C 0.29539642 -0.46688688 -1.3772357
O 1.2562819 0.5865857 -1.1736777
C 0.7909398 0.8561796 0.1633846
H -2.0049782 -0.6642052 2.329321
H -0.39233777 -0.24664924 -2.2004702
H 0.7745819 -1.4375849 -1.5458319
H 1.5629431 0.67344016 0.91961086
H 0.39598578 1.8719865 0.27276027
