11

C -0.77388465 0.87758654 1.544276
N 0.58389413 0.5169927 1.176381
C 0.83647203 -0.05202631 0.09650617
O -0.14350624 -0.38790354 -0.8419229
C 0.251389 -1.0261034 -1.9651446
O 1.3773054 -1.3355107 -2.2383835
H -0.7869216 1.9512349 1.7508587
H -1.014693 0.36250988 2.4789705
H -1.5408256 0.64689416 0.79587567
H 1.8415439 -0.33625734 -0.20374611
H -0.6307734 -1.2174169 -2.5936708
