11

C 1.8338753 0.48186177 -0.01891679
N 0.60570556 0.092993416 -0.43337068
C -1.7533133 -0.35137823 -0.22597997
O 2.1605606 0.57648575 1.1459097
C -0.4439817 -0.20601512 0.5021637
O -1.852475 -0.2595168 -1.4251593
H 0.35318136 0.07250882 -1.4120107
H 2.5142484 0.70021296 -0.86213607
H -2.6340559 -0.5597445 0.41121402
H -0.24577501 -1.1328869 1.0594283
H -0.53797024 0.5854789 1.2588578
