11

C -0.38258916 0.28095064 0.51616146
N 0.50678534 -0.39247714 -0.39047079
C 1.84935275 -0.35343412 -0.22500200
O -2.06800281 -0.23439092 -1.09476798
C -1.77800591 0.29158908 -0.04808299
O 2.40534173 0.20758913 0.69620748
H -0.05783126 1.31559805 0.69482215
H -0.40537683 -0.20191755 1.50370389
H -2.53819976 0.81069102 0.56655406
H 2.38875335 -0.89652696 -1.02231042
H 0.07977251 -0.82767123 -1.19681472
