9

N 1.1105919 -0.9770904 -2.1874642
C 0.89578944 -0.5088077 -1.1532519
C 0.6160768 0.052581616 0.1563141
C -0.7111658 0.69085366 0.37938592
N -0.39196503 -0.579645 1.0029075
H 1.4900948 0.42465052 0.6845322
H -0.76932144 1.5409234 1.055313
H -1.4029855 0.71127486 -0.45745614
H -0.8371154 -1.3547407 0.5197197
