11

C 1.07017580 -0.05343523 -1.43446495
C 1.94691318 0.15694459 -0.52676936
N 0.58620700 0.68990759 -0.23406595
C -0.11546625 -0.04900944 0.76226694
C -1.61016960 -0.00679608 0.58995350
O 0.46378248 -0.57340296 1.67991981
H -1.88201472 -0.41800664 -0.38868218
H -2.09008183 -0.58588456 1.37977679
H 0.67060934 -0.36743968 -2.38409767
H 2.91668752 0.17514896 -0.06303661
H -1.95664326 1.03197328 0.61919938
