11

C -0.22399442 0.43711814 -0.70803
C 0.7607925 -1.3904018 0.6479101
N -0.42821896 -0.5318185 -1.3691652
C -0.2928807 -1.5437508 -0.22485407
C -0.30943507 1.7553632 -0.11999241
O 1.4421139 -0.33795503 0.76619977
H 1.0171863 -2.2909467 1.2285227
H -1.3543185 2.0428138 0.028768782
H 0.18095654 2.465914 -0.793474
H 0.24089368 1.7200817 0.82419276
H -1.0330952 -2.3264174 -0.28007844
