11

C -1.492152 0.28640693 -0.4962737
C -0.13206369 -0.4178191 1.5659578
C -0.20217039 -0.028596655 0.1304346
O -0.06850701 -1.4909693 0.13825409
C 0.96133024 0.70509124 -0.49937692
N -2.5161865 0.589916 -0.9376878
H 1.0244873 0.51284415 -1.5751947
H 0.8310923 1.7785598 -0.34376138
H 1.8848583 0.40580273 0.004016995
H 0.88049644 -1.6976993 0.14661509
H -1.171185 -0.6435363 1.867016
