11

C 0.06593473 1.4160763 -0.66700655
C -0.2718819 -1.1726724 -0.41796768
C -0.015485476 0.19797818 0.17259428
O 1.3898387 0.543031 0.09884891
C -0.56080616 0.35229442 1.5290843
N -1.0192657 0.4519031 2.5825431
H 0.095117986 -1.9603689 0.2461983
H 1.252253 1.6190526 0.11992865
H -1.345895 -1.3134356 -0.5665411
H 0.24048713 -1.2496353 -1.3798887
H 0.16970246 1.1157768 -1.7177937
