9

N 2.3978338 1.4382533 -0.4169701
C -0.51878786 -0.16550666 0.29013762
C 0.5448327 -0.108773775 -0.69923496
N -1.5441674 -0.913721 0.2808224
N 1.538826 0.7249117 -0.5418567
O -0.3297812 0.7026537 1.3095646
H -1.5695727 -1.514155 -0.5400765
H 0.57305986 -0.73511416 -1.5759223
H -1.0922433 0.57145184 1.8935362
