9

N -0.88678133 -0.5793912 -1.2236323
C 0.23348492 -0.14802924 -0.5529159
C -0.053201642 0.3703533 0.7872011
N 0.9595092 0.8058902 1.4830568
N 1.8375052 1.1775225 2.0852106
O 1.3481991 -0.15679547 -1.0404627
H -0.7009203 -1.0923909 -2.0735505
H -1.7090013 -0.8439468 -0.7064758
H -1.0287936 0.46678725 1.2415693
