9

N 0.049707055 -0.11891654 1.7047299
C 0.6059957 -0.1529181 -0.7192517
C -0.22975758 0.049996093 0.43770808
N -0.39088935 0.3023158 -2.8899913
N 0.065611355 0.09330651 -1.8855805
O -1.4507744 0.44969112 0.35675237
H -1.219288 0.29637098 1.6276265
H 0.93434614 -0.43895838 2.0755537
H 1.635049 -0.4808874 -0.7075469
