9

O -1.2839586 0.6580816 0.40399322
C 0.050728526 -0.9864418 -0.15761326
N 0.83034164 0.13507958 0.06760155
C -1.3069602 -0.7063996 0.14971086
C -0.007891492 1.1889848 0.40981448
O 0.26428467 2.3256252 0.65427905
H 1.8054599 0.27136967 -0.13522422
H -0.8284228 -0.91328704 -1.1031367
H 0.47641847 -1.9730122 -0.28942496
