9

O -0.80555975 -1.14091 0.7420197
C -1.2574488 -0.10578419 -0.16438241
N -0.1401397 0.5779646 -0.48194942
C 1.019807 0.03154166 0.17418385
C 0.48172742 -1.1293529 0.987945
O -2.4023798 0.001724801 -0.47422743
H -0.17947224 1.3631595 -1.1076248
H 1.7754358 -0.3419118 -0.5264565
H 1.50803 0.7435683 0.85049194
