9

N -0.83568543 -0.3458993 0.24884574
C -0.270794 -0.7126996 -1.152212
C 0.892539 -0.020275848 -1.0672596
N 1.149888 0.7095675 0.13644862
C 0.15939742 0.5283655 0.90014875
H -1.0076544 -1.2150718 0.75768286
H -1.743525 0.10359351 0.11876279
H 1.6517122 0.028563032 -1.8381059
H 0.0041221287 0.923857 1.8956888
