9

N 0.49005823 -0.06815296 -0.29121750
C -0.48102500 0.06109274 -1.09573623
N 1.12681396 -0.14011730 1.92919887
C 0.19280299 -0.02751799 1.07693849
O -0.30775810 0.04147471 -2.41731546
H 0.64369688 -0.07458254 -2.57517807
H -1.53663426 0.19875063 -0.84176876
H 0.74073066 -0.09665958 2.86937286
H -0.86868504 0.10571229 1.34570539
