11

N 0.127914 1.8301451 -1.4349468
C -0.041723303 -0.61775553 0.93077004
N -0.40082607 -1.416133 1.9159353
N 0.42119288 -0.5407001 -1.2179
C 0.1108413 0.6347274 -0.7734525
N 0.42004472 -1.3216383 -0.06817747
O -0.1957721 0.6820931 0.57665735
H -0.19188242 -1.1606694 2.8723392
H -0.65066266 2.4402244 -1.2279725
H 0.120104395 -2.2354224 0.8528632
H 0.28076932 1.7051288 -2.4261158
