11

N 1.847543 -0.11166977 -1.4359294
C 0.6000938 -0.13350396 -0.8703204
N -0.54667073 -0.2420904 -1.4444538
N -1.5026393 -0.06766156 -0.4336071
C -0.83786076 0.09241704 0.6550757
N -1.2984459 0.1955917 1.9427881
O 0.5138051 0.06933802 0.47336757
H 2.5449867 -0.64872396 -0.9378379
H 1.8058511 -0.35063946 -2.4169064
H -0.8234936 0.8898072 2.504035
H -2.3031693 0.30713516 1.9637889
