9

O 2.18099294 -0.11598053 0.51844483
C 1.00303859 -0.02558942 0.31588325
C -0.19433345 0.43517038 1.07050301
C -0.99731674 0.15241397 0.02559834
C 0.08975511 -0.35830773 -0.90103059
H 0.28284726 0.23755454 -1.79779326
H -0.34718026 0.83967203 2.06267287
H 0.04928038 -1.41844542 -1.16818592
H -2.06708365 0.25351215 -0.12609261
