11

N 2.02411435 -1.46981263 -0.14764411
C -0.33781079 0.11925778 -0.02892223
C 0.83537116 -1.84180767 -0.61069417
N 3.03529188 -1.13121842 0.25320467
C -1.65146969 0.73825214 -0.07736122
N -1.65246339 1.94244356 0.45371583
N -0.24046682 -1.07019886 -0.53120646
H 0.81442453 -2.82646914 -1.06176113
H -2.51713140 2.46638657 0.47983115
H 0.52661393 0.65927748 0.41950408
H -0.83647378 2.41388925 0.85133351
