11

N 0.2985833 -1.0558264 0.8177296
C 0.66180915 0.13883448 0.46761274
C -0.66935724 -1.9112883 0.50267226
N -2.4530592 -1.5867265 -1.1462575
C 0.06332706 1.061982 -0.51853096
N -1.6289656 -1.7452563 -0.3812637
N 0.77431667 2.1859777 -0.55858904
H 1.5615867 0.49781945 0.998038
H -0.70855176 -2.87876 1.00089
H 1.6076131 2.368298 0.0023818074
H 0.49269816 2.9249458 -1.1846833
