9

N 0.315954 1.7323835 -0.112725876
C 0.48757648 0.52292347 0.32798094
N -0.4062072 -0.21026841 -0.34162137
C -0.5742796 -1.5682694 -0.16445102
O -1.3774115 -2.2483823 -0.75644124
H -0.60509187 1.0742041 -0.8152289
H 0.85273814 2.5303118 0.18862662
H 0.118862264 -1.9866065 0.5987904
H 1.1878594 0.15370394 1.0750704
