9

N 0.20168449 1.271398 1.554717
C 0.06641789 -1.0817043 -1.1459037
N 0.48018095 -0.35910958 -0.053081196
C -0.2507575 0.66110325 0.5432297
O 0.70394546 -1.9712731 -1.6542599
H -0.925052 -0.7591145 -1.5169479
H -1.209026 0.8440519 0.04294074
H 1.3803469 -0.58522516 0.3541949
H -0.4477402 1.9798737 1.8751103
