12

N -0.45136753 -1.6168414 -0.14616871
C 0.29682907 1.5201932 -0.9383905
C 0.54333586 0.56150377 0.15528716
C -1.189589 -0.8615175 0.5622364
N -0.65701455 0.35851386 0.9668742
C 0.797698 -0.88906425 -0.3595781
N 0.078479715 2.271276 -1.7865019
H 1.3706546 0.93431824 0.7651321
H -1.2865586 1.1416742 1.073763
H 1.5997977 -1.3611382 0.21626034
H -2.1808903 -1.1447154 0.9061587
H 1.0786248 -0.91420245 -1.4150727
