10

O 2.0043347 -0.42146006 -0.056108132
C 1.6616138 0.7560824 -0.56502265
N 0.39808342 1.0136917 -0.52151984
C -0.09117794 -0.13402455 0.0786116
C -1.537183 -0.35577184 0.36042738
N 0.82280785 -1.0118918 0.37629372
H -2.1123874 -0.33640626 -0.5702384
H 2.460237 1.3706542 -0.95889586
H -1.6829673 -1.3197869 0.85129577
H -1.9233607 0.4389134 1.0051563
