10

O 0.06291494 -1.4508976 1.6638502
C 0.037931986 -0.47772318 0.73890877
N 0.1352025 0.8015649 0.95299494
C 0.055883754 1.3651711 -0.310835
C -0.08824333 0.4059143 -1.2650052
N -0.099577844 -0.79865384 -0.56680614
H 0.1666914 -0.99590796 2.512464
H 0.10576589 2.4360633 -0.4458139
H -0.18422791 0.4443141 -2.3392272
H -0.19234137 -1.729845 -0.94053054
