11

N 0.13226202 1.97999986 1.24863465
C 0.18999725 0.92118481 0.56633558
C -0.17235998 0.19000847 -0.66582612
C 1.04320821 -0.21062575 0.23130028
C -0.65278016 -1.21686523 -0.31848551
O 0.45896888 -1.46274432 0.56277505
H -0.66660539 2.54188478 0.95523183
H -0.21781277 0.63836823 -1.65326141
H 2.11252295 -0.17014667 0.05581312
H -0.60926336 -1.89808646 -1.17505691
H -1.61813755 -1.31297799 0.19253920
