11

N 1.1887827 1.8444802 -1.0382379
C -0.107837446 -1.3350434 -0.049441583
C 0.86613864 1.3231342 -0.01288884
C -0.70485526 0.02491656 -0.47021887
C 0.13997442 0.4945352 0.8769642
O 0.62984025 -0.7913511 1.0836098
H 0.5948103 -1.7943413 -0.75656724
H -1.7695628 0.11550528 -0.2175243
H 0.30332825 1.2357249 -1.451385
H -0.8170451 -2.0985155 0.29579678
H -0.32357422 0.9809551 1.739893
