10

N 1.38253341 -0.69393653 0.10889382
C 0.14928958 -0.42725852 -0.09362135
N -0.74208957 -1.33020843 -0.59063343
O 1.91718951 0.57161102 0.74228556
C -0.23548565 0.95683383 0.34090036
C 1.05712819 1.51790891 0.87823520
H -0.60883208 1.58631376 -0.47470439
H -1.56914009 -0.97167361 -1.03777376
H -1.00074474 0.95486187 1.12628979
H -0.34984869 -2.16445241 -0.99987165
