10

N 0.556652 -1.4597585 0.47774777
C -0.47963458 1.9142491 -0.54632
N 1.3451682 0.4145095 -0.6507755
O 0.735276 1.7680516 -0.9416503
C 0.41077024 -0.20792675 -0.040453073
C -0.8399187 0.6072091 0.1141543
H 1.3699037 -1.9746478 0.17641318
H -1.1058863 0.77646846 1.1644278
H -1.7156512 0.16676626 -0.37568888
H -0.2766795 -2.0049212 0.62214476
