10

N -0.32114992 -1.0021331 -1.5097312
C -0.07693262 -0.4417894 -0.26951584
N -0.03484049 -1.1733742 0.8161003
O 0.31464007 -0.30649975 1.8392037
C 0.45447016 0.92242604 1.3361144
C 0.22401404 0.93052477 0.003683644
H -0.8866437 -0.42807057 -2.1188152
H -0.6740044 -1.9473054 -1.4493713
H 0.72687346 1.6923853 2.0431697
H 0.27357328 1.7538362 -0.69083804
