9

O -0.95218881 -0.51226222 -1.33424431
C -1.00519250 0.41989665 -0.57662634
N 0.99639240 -0.36216216 0.63169420
C -0.00800827 0.64382717 0.54482696
C 1.24892690 -1.36703481 -0.00540079
O 1.63368669 -2.35152492 -0.49757094
H -1.79782227 1.18950428 -0.64974937
H -0.56874306 0.71016358 1.48825822
H 0.45294850 1.62959253 0.39881231
