9

O 0.5955031 -2.1731336 1.2307333
C 0.24975803 -1.153231 0.7126976
N -0.9479532 -0.53180057 0.5738624
C 0.6894312 0.7549778 -0.4323317
C -0.674816 0.6876316 -0.21360642
O 1.2787509 -0.30497766 0.052440967
H -1.0880797 -0.28482664 -0.77956015
H 1.2943623 1.5114665 -0.91666967
H -1.3969564 1.4938933 -0.22756618
