9

O -0.9348006 -1.1305561 -1.9700068
C -0.4086732 -0.62011653 -1.0187534
N -0.89719737 0.32109162 -0.1400054
C 0.064296104 0.6264971 0.8200845
C 1.1302193 -0.124056615 0.52599263
O 0.86925113 -0.8903998 -0.58678484
H -1.821693 0.7059288 -0.22240175
H -0.103415795 1.34092 1.6103857
H 2.102013 -0.22930838 0.9814893
