11

N -1.1184847 0.063645974 1.7037553
C -0.2599522 0.24868216 -1.1319143
C 0.11414817 0.33498535 0.30275312
C 0.021651074 -1.0133802 -0.36698937
C -1.0739737 1.1764346 1.2688091
O 1.3309664 0.83838314 0.6279783
H 1.6096106 0.43530136 1.4636765
H -0.8035538 -1.6679724 -0.11824549
H -1.2885103 0.473683 -1.3896885
H 0.9778518 -1.5043927 -0.5341348
H 0.49024674 0.6146297 -1.8260001
