11

N 1.447909 -0.40050536 0.5985027
C -0.5676754 1.0204359 0.2585164
C -1.0105724 -0.42322242 0.2236752
C 2.3657112 -0.7329662 1.2529864
C 0.36514902 -0.030175213 -0.22979353
O 0.67993265 -0.00518885 -1.5738508
H -1.1005259 -0.95360535 1.1667496
H 0.8462784 -0.91348636 -1.8639452
H -0.3614722 1.4714247 1.2228404
H -1.706461 -0.7225107 -0.55388206
H -0.9582735 1.6897999 -0.5017993
