11

N 0.13499509 0.24256475 0.15364559
C 1.3816302 -0.10844844 -0.017981073
C -0.8542808 0.41040257 1.2377205
N 1.5340227 -0.80006504 -1.2086637
C -0.55969393 -0.2508438 -0.9711183
N 0.3780732 -0.9139003 -1.7636818
H 2.1797948 0.008236378 0.6998398
H -1.1642512 0.46838617 -1.5283904
H -0.44673848 0.0627512 2.1827867
H -1.4111587 -0.57388115 -0.06455211
H -1.1723926 1.4547977 1.2803949
