11

N 0.014615788 -0.006074397 -0.01216408
C 0.20898557 -0.49951753 1.3381435
C -0.7407247 -0.5571736 -1.0032194
N -0.7166958 0.19276005 -2.0718484
C 0.4961651 1.1433084 -0.5646286
N 0.072371826 1.2779306 -1.7922045
H 1.1964588 -0.19854115 1.6946784
H 1.1425717 1.8308057 -0.037313376
H -1.2750044 -1.4903706 -0.8961004
H 0.15810184 -1.5901958 1.3336071
H -0.55684584 -0.10293181 2.01105
