11

N 0.01944883 0.00374649 -0.00248840
C -0.29107258 -0.28923961 1.38399344
C 0.05496335 1.21994373 -0.61713513
N 0.47265668 -0.25298318 -2.13446959
C 0.28584150 -0.88017268 -1.00456728
N 0.32526723 1.08706495 -1.88754668
H 0.05633430 0.53247702 2.01399148
H -1.36807935 -0.42240322 1.52148893
H -0.11722974 2.15294207 -0.09904343
H 0.33354993 -1.94981574 -0.85837037
H 0.22831992 -1.20155983 1.68414685
