11

N 0.2963387 0.3067222 1.9997004
C 0.11497249 0.10489613 0.76552397
C -0.63588035 0.8455947 -0.3418818
N -0.4265723 0.080581844 -1.5754659
C 0.291747 -0.9156787 -1.2464173
N 0.64856344 -0.99114645 0.08844038
H -0.17384516 1.1601435 2.3000715
H -1.7066535 0.91486347 -0.11835354
H -0.26000735 1.8690127 -0.4623695
H 0.6276487 -1.6844184 -1.9378045
H 1.2236884 -1.690571 0.5285561
