11

N 0.3284671 2.928008 0.45250174
C -0.20653808 1.9099755 0.3532071
C -0.85519755 0.600971 0.20348209
C 0.007806553 -0.3575731 -0.59767306
C 0.9147846 -1.2918357 0.06601447
O -0.33218974 -1.7216686 -0.4670019
H -1.8235708 0.7393312 -0.28750008
H -1.048615 0.17670141 1.1955942
H 0.2375648 -0.037632935 -1.6129837
H 1.798352 -1.6527026 -0.45821804
H 0.9791363 -1.2935748 1.1525773
