11

N -1.0396059 0.45663142 -2.8423858
C -0.4669711 -0.7663563 -0.5997821
C 0.7871334 0.2513013 1.3915274
C -0.74347377 -0.06895386 -1.8536037
C 0.6073787 0.8360671 0.06414843
O -0.53118986 -0.08235213 0.95735383
H -1.350987 -1.3740839 -0.36663824
H 0.17491926 1.844871 0.12108844
H 0.4215381 -1.3875165 -0.6757457
H 0.6889986 0.89473385 2.2675598
H 1.4522593 -0.60434204 1.5364776
