11

N 0.41154404 2.52738004 1.60551435
C -0.80985748 -0.12712857 -1.04534077
C 0.49913846 1.41549520 1.31190463
C -0.41268830 -1.54847488 -0.88756508
C 0.59689859 -0.00776859 0.95193881
O 0.52689796 -0.17028681 -0.47101428
H -1.54067453 0.28573645 -0.34292984
H -0.76015059 0.42465609 -1.98561576
H -0.20724696 -0.57819058 1.42061664
H 0.13051118 -1.81090516 -1.81387520
H 1.56562780 -0.41051382 1.25636663
