10

N -1.3314869 -0.047777258 1.2388338
C -0.54618114 -0.036124226 0.07721846
C 1.384211 -0.059299096 -0.9624395
O 0.4469961 -0.1885181 -1.8526508
C -0.87794566 -0.1726297 -1.2486444
N 0.8562319 0.021605035 0.23767574
H 2.4338548 -0.023658093 -1.2177808
H 1.3541687 0.055608213 1.1145108
H -2.239869 -0.43227413 1.0020852
H -1.4799799 0.8830673 1.6111916
