11

N -0.7313648 -0.7591096 1.561022
C -0.19485101 -0.13122688 0.42131755
C -0.13157862 -0.61095285 -0.87019086
N 0.4018858 0.39391175 -1.6180619
N 0.6933745 1.4835963 -0.9071107
C 0.33380756 1.1783899 0.33144417
H -0.22091573 -0.5315193 2.4028645
H -0.77221346 -1.7639111 1.4626112
H -0.4186617 -1.5582027 -1.3011984
H 0.5824208 0.39459243 -2.607514
H 0.45809662 1.9044322 1.1248161
