11

O -0.74112463 0.21222833 1.4258658
N 0.38182956 -1.1747268 -1.1861931
C -1.1414732 0.37745377 0.060490258
C 0.28019738 0.11132815 -0.45918137
O 0.9806741 -1.0710626 -2.2286003
C 0.6145748 -0.045334995 1.0338017
H -1.8829952 -0.368849 -0.24558298
H 1.305778 0.7081977 1.4268746
H 0.77745646 0.91177434 -1.0140842
H 0.9436577 -1.0480653 1.3274742
H -1.5185751 1.3870564 -0.14086473
