10

O -0.29980195 -2.3179522 0.6693834
C 0.985935 1.9795053 1.0398066
C -0.6120647 -0.6282777 -0.9754389
N -0.15588728 1.2600336 0.64630055
O 1.4459509 2.8860612 0.40443876
C -0.60888684 -2.0096219 -0.45686832
C -0.3272668 0.36347657 -0.15145576
H -0.928077 -2.7734058 -1.1937827
H -0.85254914 -0.41142493 -2.0092146
H 1.3526479 1.6516062 2.0268314
