10

C -1.011469 -0.3661788 0.2267298
C 0.5384537 0.21952876 0.51428556
N 0.3600126 -0.5896 -1.6004792
N -0.8691535 -0.5024791 -1.2529526
C -0.73590857 0.965155 0.33132797
C 1.2079688 -0.31582332 -0.6247923
H 1.0636569 0.35512984 1.4548297
H -1.1648142 1.7697008 0.9136468
H 2.2703462 -0.47935745 -0.7359415
H -1.6590925 -1.0560756 0.77334577
