9

O -1.97070761 1.46610779 -1.15686303
C -0.33254408 0.00618898 -0.80109558
N 0.86333162 -0.29473406 -0.72006186
N 1.38491269 -0.57706727 0.56426338
C 0.70961981 -0.46121601 1.66825851
N -1.52007073 0.14932380 -1.09379278
H 2.35060751 -0.86762337 0.44431003
H 1.42179452 -0.76510741 2.45828204
H -2.90694366 1.34412747 -1.36330044
