9

O 0.44530645 -2.0304449 -1.3892268
C 0.26579857 -0.5044398 -0.7293154
N -0.801496 -0.15389897 -0.18977344
N -0.7448973 0.9392586 0.6850624
C 0.32625803 1.647918 0.8712543
N 1.3828374 -0.75851727 -1.2776076
H 0.033513904 2.410045 1.6152371
H -1.6684607 1.0631262 1.0905839
H 0.76113963 -2.613047 -0.67621434
