11

N -0.34023207 1.3537194 -1.0532272
C 0.75991863 -0.95394844 -0.12562807
C 0.008124897 0.18670861 -0.2588792
C 0.31781116 -1.3972898 1.1479882
N -0.6012982 -0.5896533 1.6982583
N -0.7786441 0.38332814 0.8091651
H 0.63728684 -2.2812042 1.685112
H 1.4841968 -1.4006169 -0.7912338
H -1.0724798 1.491237 0.0038774088
H -0.81614435 1.1701138 -1.932987
H 0.40146032 2.0376062 -1.1824459
