11

N 0.10209717 0.7118602 -1.7206819
C -0.00346459 0.16728297 -0.43681365
C 0.8904141 -0.5039743 0.37002903
C 0.12870821 -0.8583329 1.509029
N -1.1188995 -0.44133306 1.4323874
N -1.1798753 0.18222243 0.23417325
H 1.0450643 0.6313266 -2.077862
H -0.19284382 1.6798595 -1.772462
H 1.9337355 -0.7000987 0.1717464
H 0.46029702 -1.3972393 2.3869405
H -2.0652332 0.52842647 -0.09648578
