11

N -0.38255945 0.58566819 -1.00108363
C -1.59500874 0.18170669 0.66935229
C 0.42120554 -0.11648639 -0.16766031
C -0.33646135 -0.39844260 0.95104740
N 1.71938853 -0.46959165 -0.54853084
N -1.62236702 0.78192819 -0.50448089
H 2.30829556 0.32933561 -0.75195993
H -0.17347735 0.88932709 -1.93790609
H 2.16437788 -1.03690574 0.16109952
H -0.02530099 -0.93326534 1.83529679
H -2.47809272 0.18672587 1.29482595
