11

N 0.14088266 -0.62721378 -1.80462018
C -0.18432200 0.03268907 -0.65163300
C 0.93606427 -0.05210536 1.48067137
N -0.04479163 0.49038505 2.11355330
C -1.22955561 0.58517724 -0.01704990
N -0.34536994 1.26997228 0.92518897
N 0.80117900 0.62611989 0.23258104
H 1.07903960 -0.99427285 -1.83407088
H -0.55321945 -1.26425136 -2.15942525
H 1.70129133 -0.74480083 1.80888396
H -2.30119851 0.67830070 -0.09407941
