11

N -0.47895548 -1.4185963 -1.1950252
C -0.17229281 -0.2166595 -0.61890435
C -0.5143604 1.080441 -0.65008515
N 0.48567227 1.4442145 1.545302
C 0.7871977 0.19284604 1.5538498
N 0.6805311 1.4538826 0.105770856
N 1.030709 0.010524581 0.15980026
H -1.4491211 -1.5654567 -1.4201739
H -0.037032384 -2.218584 -0.77021724
H -1.2478528 1.7421411 -1.0827119
H 0.91550523 -0.5047531 2.3723946
