14

C -1.882832 -1.6404157 -0.18013792
N 1.1006696 0.6291699 -0.62537473
C 0.021848049 -0.17667215 -0.35852796
O -0.2603189 -1.0845245 -1.1934468
N -0.7810062 -0.09232567 0.6672354
C 1.6408255 1.5645831 0.3335433
H -0.6089231 0.567438 1.4155184
H 2.357007 2.2157567 -0.17252953
H 0.8360139 2.2003222 0.7171866
H -2.139766 -1.9615395 -1.1857232
H 1.7216508 0.25602004 -1.3237572
H 2.1420243 1.0776529 1.1806138
H -2.710212 -1.1343815 0.3039776
H -1.436981 -2.4210837 0.421422
