9

O -1.1570296 -1.2870243 -1.0786408
C -0.38083124 -0.4740744 -0.34648642
C 0.47590753 -0.7913947 0.6536784
O 1.0328294 0.393833 1.0832045
C 0.47209483 1.333195 0.3153734
N -0.3765837 0.8882148 -0.5550451
H -1.6348305 -0.726298 -1.707794
H 0.7960642 -1.6941953 1.1467437
H 0.77237904 2.3577437 0.48896617
