9

O -0.27804627 -0.63148783 0.42087843
C -1.45003168 0.89960693 -0.89456753
C 0.86994825 -1.08710528 0.94631510
O 1.95276462 -0.60211623 0.76793453
C -0.11898496 0.52301147 -0.41045646
N -2.48367243 1.22604126 -1.29434574
H 0.53714861 0.29569348 -1.25724768
H 0.65102389 -1.97079323 1.56128923
H 0.31984995 1.34714923 0.16019997
