11

C 2.16541950 1.45575635 0.50331974
C -0.57063621 -1.24025603 -0.50185440
C -0.07178989 1.14490805 0.48924740
O 1.16447726 0.65237703 0.21433098
C -1.04415047 0.08374831 0.09322502
N 3.10005358 2.10004845 0.72869001
H -0.01439254 -1.08385049 -1.43102723
H -1.42969378 -1.88016680 -0.72544124
H 0.07989143 -1.77917987 0.19437763
H -1.63693579 -0.06479508 1.01010013
H -1.74224310 0.61141028 -0.57496809
