11

C -0.588042 -0.5640568 -0.6113938
C -1.0394907 -0.52617645 -2.2395017
C 0.83609146 0.7520038 1.0403671
O -0.21279016 0.344659 -1.4790064
C -0.07717028 -0.44018444 0.77207536
N -1.5635635 -0.881397 -3.225621
H -0.97356194 -0.44311637 1.4104521
H 0.32408375 1.6990433 0.84700024
H 1.1562178 0.7460418 2.0867279
H 0.40815395 -1.4036621 0.9879162
H 1.7300718 0.7168452 0.41098392
