11

C 0.69434047 0.2039216 1.115721
O -1.8657854 -0.017327117 -0.5228157
C 0.49537027 -0.06521968 -0.3732121
C -0.79487056 -0.6775304 -0.78884494
O 0.15782198 1.0315084 -1.1409364
H 1.332897 -0.663091 -0.7717789
H -0.90756255 -1.5795994 -1.3928194
H 1.5505499 0.87485874 1.2286509
H -1.3668622 0.9068466 -0.5674015
H -0.18388307 0.7028261 1.5374713
H 0.8879843 -0.7171939 1.6759663
