10

C -0.3042861 -1.2870326 0.30866385
C 0.084653765 0.9862343 0.6960376
N -0.3682968 -1.1013263 -1.0620732
N -0.17334892 0.016518185 -1.6036552
C 0.26959154 -0.34762987 1.1319726
C -0.11478369 1.1245157 -0.6968019
H 1.0128818 1.4225981 -0.36222607
H -0.45971292 2.060162 -1.137296
H 0.6698792 -0.59327906 2.1114264
H -0.61657774 -2.2807605 0.6139518
