11

N 0.88827799 0.92777757 1.51989535
C 0.60628010 0.50669938 -0.89977177
O -0.08308059 -0.40443686 -1.67107997
C -1.04649131 -0.93615463 -0.78199307
C 0.34921347 0.31771730 0.39506796
O -0.55894538 -0.72908675 0.53545914
H 1.55526419 0.32781653 1.99627828
H -1.15893810 -2.00513643 -0.96760675
H -1.99868358 -0.40040350 -0.90946799
H 1.27175069 1.18986399 -1.40284371
H 0.17535286 1.20534342 2.18606245
