11

N -0.60423625 1.4894279 1.1731982
C 0.21169901 -1.5028863 -0.5287334
O -0.11995293 -0.8172338 0.66965973
C -0.12728429 0.5246013 0.2959142
C 0.43722 0.64986414 -0.90577275
O 0.8654084 -0.57448757 -1.3725932
H 0.8897837 -2.3272016 -0.3039574
H -0.7088038 -1.856778 -1.0159546
H -1.5174105 1.2526634 1.5462116
H 0.6440547 1.5187064 -1.5099076
H 0.029521681 1.6433243 1.9519352
