10

N 0.5889112 1.0299925 -1.6430603
C 0.051396053 -0.5270267 -0.8357293
O -0.4763981 -1.571463 1.2178583
C 1.4727348 0.46013394 -1.0646812
C -0.26645446 -0.5181292 0.65462273
N -0.3715828 0.70461065 1.2255954
H 0.47967792 -1.4817325 -1.1331184
H -0.548434 0.7425589 2.2176428
H -0.878517 -0.37241706 -1.3888971
H -0.0513335 1.5334724 0.74976707
