12

N -0.68584566 -0.75849264 1.33777635
C 0.49421517 0.08405388 1.14137449
C -1.42819375 -0.57425255 0.32200732
C 0.41859629 0.59131487 -0.33046744
N 1.99430773 -0.74361524 -1.95734872
C 1.31426780 -0.15494815 -1.23507217
N -0.99037819 0.33516235 -0.63617856
H 0.45592928 0.92907411 1.83634454
H 0.65104499 1.65608600 -0.41361003
H 1.40921447 -0.47857084 1.34310791
H -1.23503513 0.16148786 -1.60093639
H -2.39812316 -1.04729956 0.19300247
