10

N -0.38624215 -1.9259393 -0.2513447
C 0.78944194 0.2272811 -0.08117779
O -1.5794632 -0.03588862 0.22685297
C -0.42557004 -0.6831687 -0.046087448
O 1.8852934 -0.23981461 -0.3179368
N 0.5286866 1.5313466 0.16541345
H -2.280996 -0.70494354 0.22439879
H 1.2980428 2.1825466 0.16371624
H -0.4040688 1.8520143 0.36229762
H 0.57487553 -2.2034338 -0.44613233
