10

C -0.90185075 0.01721783 -0.28416526
C 0.21255541 -0.93106165 -0.56997829
N 0.25804213 0.41089224 -1.14233316
C 1.13896726 0.06864748 0.00452167
C -0.62427595 0.61947584 1.06095878
N 0.63488815 0.65625670 1.24776392
H -1.86925711 -0.04346581 -0.76867467
H 0.29757283 -1.84266689 -1.14625997
H 2.20768287 0.07105294 -0.18336889
H -1.35432442 0.97365086 1.78153563
