10

C -1.2203202 -0.38182312 -0.3495334
C -0.090030044 -0.81423086 -1.0430287
N 1.1357435 -0.43404388 -0.6968838
C 1.2197808 0.38237253 0.35037473
C 0.09121888 0.81357455 1.0435326
N -1.1359267 0.4332483 0.6968205
H -2.2150524 -0.7034027 -0.64865637
H -0.18072212 -1.4821173 -1.8967667
H 2.2153041 0.70510393 0.6467391
H 0.1800046 1.4813181 1.8974018
