10

C -0.7397352 0.88577557 0.7531918
C -0.28509575 0.6232826 -0.65162903
N -0.16929352 0.058776118 1.535759
C 0.029463487 -0.8315078 -0.7380091
C 0.64483637 -0.7231956 0.60262215
N 1.1172701 0.118624456 -0.5272371
H -1.4405124 1.6464038 1.0818219
H 0.0043264064 -1.5621527 -1.5354292
H -0.50956166 1.232575 -1.5192031
H 1.3483022 -1.4485816 0.99811256
