9

O -1.252645 0.037670765 -1.6137378
C -0.5106392 -0.13266584 -0.51335037
N -0.676535 -1.1490749 0.28761232
O 0.25658244 -0.9783386 1.2946448
C 0.9492055 0.1409846 1.0552621
C 0.5258092 0.7438757 -0.07901701
H -1.8812017 -0.6968691 -1.6660489
H 1.7147768 0.38192633 1.7781388
H 0.8746466 1.6524909 -0.543504
