12

C 1.1798025 1.2822754 1.1394951
C 0.17797856 0.5778436 0.6082004
O -1.1073487 0.61637497 1.0418197
N 0.3194389 -0.29308608 -0.45712894
C -0.66256356 -1.0710629 -1.0378534
N -0.36514238 -1.8030195 -2.032873
H 2.190364 1.186295 0.75959724
H 1.2371374 -0.37706703 -0.8676021
H 1.0057219 1.9624815 1.9659444
H -1.1825669 -2.3106923 -2.3537076
H -1.149529 1.2095388 1.8022386
H -1.643293 -0.97988194 -0.5681301
