10

N 0.74086595 -1.68635199 0.03311288
C 0.23586978 -0.45056712 0.16362919
O -0.80422060 2.02527114 0.36619777
N -0.32562717 0.12589226 -0.88794562
C -0.81883357 1.37036745 -0.68917394
O 0.35779889 0.06487634 1.36420263
H -0.06681254 0.97246595 1.31041579
H 1.23221201 -2.11670652 0.79750575
H 0.72558828 -2.12042616 -0.87261078
H -1.27684090 1.81517875 -1.58533288
