10

C -0.90222204 0.01682109 -0.28386340
C 0.21155624 -0.92816673 -0.57353468
N 0.25708262 0.41227587 -1.14122095
C 1.13923404 0.06922351 0.00262532
C -0.62238860 0.61863879 1.06246308
N 0.63559097 0.65683558 1.24690040
H -1.86939781 -0.04383201 -0.76797696
H 0.29602240 -1.84284000 -1.14329462
H 2.20830186 0.06929720 -0.18400222
H -1.35377944 0.97174654 1.78190393
