10

C 0.86667275 -0.05859618 0.74033624
C 0.18445389 -1.0940015 -0.065794624
N -0.038278695 1.0113082 1.1687429
C -0.87677646 1.0415976 0.21271321
C -0.49835065 0.004257192 -0.80404884
N 0.99260247 -0.086437546 -0.7387266
H 1.7687739 -0.24550676 1.3139335
H 0.2768687 -2.160444 -0.21595459
H -1.7222205 1.7200341 0.16622613
H -0.95374537 -0.13221091 -1.7774274
