10

N -0.08749255 -0.49812782 -1.06696835
C -0.07449173 1.16092837 0.61373087
C -0.05701482 0.95047168 -0.85049723
O 0.01510002 -0.58294109 2.33870345
C -0.01592271 -0.18779631 1.04507917
N 0.01797041 -1.10835802 0.08638996
H 0.86593090 1.37170180 -1.27345751
H -0.90054256 1.44257436 -1.34661682
H 0.15871097 -1.00283690 -1.90459274
H 0.07775193 -1.54561616 2.35822885
