10

N 0.7423367 0.4573448 -0.8673562
C 1.1239945 -0.59183556 -0.013875564
C -0.9646695 -0.05596596 0.27807945
O -2.2396464 -0.00658522 0.7112166
C -0.044880122 -1.0955354 0.68568444
N -0.5165428 0.81658804 -0.5978233
H -2.6730843 0.730282 0.2621755
H 1.344879 1.1362182 -1.3046051
H 2.021534 -1.1602279 -0.2420156
H 1.2060791 -0.23028302 1.0885198
