11

C -0.5205434 1.1361731 0.47861347
C -0.12718321 -0.23247011 -0.030084686
C 1.2599769 -0.71215165 0.028795594
O 0.27924672 -1.1808796 0.93937284
C -0.98811144 -0.775759 -1.0801042
N -1.6776853 -1.1688464 -1.9190909
H -1.5262618 1.1105008 0.9082217
H 0.18227844 1.4533309 1.2538712
H -0.50888443 1.8666303 -0.33441198
H 1.6132678 -1.4456375 -0.6951712
H 2.0138998 -0.05089109 0.44998804
