11

C 0.91459 -0.8867849 0.20406619
C -0.22460566 0.0904694 0.018298624
C -1.2193602 -0.15816621 -1.0589311
O 0.012931256 1.1296046 -0.9856515
C -0.61244065 0.7650051 1.2627552
N -0.96548545 1.2397722 2.2538714
H 1.7999142 -0.4020396 0.62661004
H -2.0899975 0.47368065 -0.8102309
H 1.1438113 -1.3465686 -0.761856
H 0.64728457 0.77666384 -1.63043
H 0.59335846 -1.6816368 0.8814983
