11

C -0.945185 0.83243394 -0.8962854
C 0.029414482 -0.024567684 -0.17600144
C -0.091110215 -0.25247803 1.3136587
O 0.7531274 1.1679417 -0.5589525
C 0.60781246 -1.1615129 -0.90243
N 1.0203344 -2.0918858 -1.4491895
H -0.5167534 0.6419131 1.7743847
H -0.93458 0.5891856 -1.9678532
H -0.05329567 1.8625501 -0.3942153
H -0.7580387 -1.0972614 1.5053873
H 0.88827425 -0.4663188 1.751497
