11

C -0.85261333 -0.35646753 -1.30416583
C -0.23291729 0.05627416 -0.03937033
C 1.27270240 0.16963348 -0.12632627
O -0.72325616 -0.84826635 1.00251060
C -0.96616395 0.91736772 0.92636637
N -1.34510394 -0.60891297 -2.31712192
H -2.02136155 0.89469887 0.60212003
H 1.52877818 0.94957415 -0.84744432
H -0.05066779 -0.88413226 1.70183108
H 1.65835220 0.48021501 0.84925687
H 1.73225131 -0.76998453 -0.44765640
