10

O -0.23919112 1.06261932 -1.81222284
C -0.41735102 0.36971844 -0.69120831
C 1.26323316 -0.46004024 0.79924969
N 0.44712134 -0.54545477 1.77805518
N -0.60729024 -0.88876085 0.83617539
C -1.29429518 0.27669414 0.31780777
N 0.37327556 -0.76562187 -0.27780790
H 0.34361143 0.55842602 -2.39795571
H 2.33784772 -0.32569817 0.76675822
H -2.20696180 0.71811795 0.68114865
