10

O 0.9885137 0.50768787 -1.7962766
C 0.38330588 0.18180236 -0.6559202
C 1.1499709 -0.2795878 0.4350025
N 0.56620884 -0.60303175 1.5670024
N -0.75981945 -0.4910781 1.6794813
C -1.426994 -0.054629255 0.62734336
N -0.9209853 0.2970224 -0.56411135
H 0.29685068 0.79504925 -2.4153078
H 2.2277794 -0.38091502 0.37921953
H -2.5048308 0.027680019 0.743567
