10

N 0.6032989 -0.80717623 1.5056968
C 0.013398996 0.16784342 0.7417484
O -0.40264064 1.214932 1.1874104
N -0.10201182 -0.1781981 -0.6071044
C -0.6380866 0.6728227 -1.5605564
O -0.76600176 0.34817764 -2.7152197
H 0.8258452 -0.5129447 2.444398
H 1.2534394 -1.4510465 1.0832179
H 0.13427167 -1.1049365 -0.93321484
H -0.92151326 1.6505263 -1.1463757
