10

N -0.037297886 0.40614092 -0.32716563
C 0.03499927 -0.71171 0.5195383
O -0.8047188 1.7721204 -1.7171749
N 1.2340053 -0.7915987 1.1546246
C -1.0739275 0.7101437 -1.0728673
O -0.87053853 -1.510587 0.6499342
H -2.010904 0.16017309 -1.1447904
H 0.27912322 1.5242736 -1.001927
H 1.3473291 -1.517298 1.8416097
H 1.9019301 -0.041658107 1.0982184
