12

N 1.79942389 0.23598871 0.25469391
C -1.69523695 0.03725147 -0.11877203
N 0.57810290 0.76226437 0.45919176
C -0.20964278 -0.15948474 -0.05881213
O -2.13749794 1.05637353 0.73810125
C 1.69629200 -0.95651061 -0.36448392
N 0.43346685 -1.24203103 -0.58161311
H -1.47109160 1.75657712 0.72831749
H -2.19466502 -0.88944006 0.17870332
H 2.62310769 0.72654709 0.56225793
H 2.55195991 -1.56246107 -0.63090296
H -1.97421947 0.23492530 -1.16668164
