12

N 0.60025036 -0.3402078 -1.7113541
C -0.70745456 0.0386555 -1.7770131
N -1.2292298 0.31088609 -0.6082238
C -0.17711398 0.088786416 0.24836288
O -0.6901281 0.505604 2.6025968
C 0.0946699 -0.130729 1.6498704
N 0.96252185 -0.14208427 -0.39967355
H 1.4736795 -0.3360438 0.70643497
H 0.10247678 -1.2030945 1.874837
H -0.47451165 1.4434203 2.5812223
H -1.2389398 0.065775864 -2.7209692
H 1.2837793 -0.300969 -2.44609
