10

N -0.61771767 -0.74813838 -0.61866149
C -1.09523317 -0.99223661 0.65428625
C -0.45389371 -0.17522466 1.52380806
C 0.26766804 0.18519079 -0.45358190
C 1.07785633 0.81188940 -1.51814304
O 1.88900027 1.68194483 -1.32246043
O 0.42307730 0.58400385 0.82220904
H -1.85818775 -1.73260825 0.83976004
H -0.48986168 -0.00913723 2.58902600
H 0.85729193 0.39431644 -2.51624236
