10

N 1.0857406 0.08667075 0.17097846
C 0.37454948 0.1935904 -0.9104245
C -0.83495134 -0.50724316 1.4395638
C -0.0980863 0.58660173 -2.0459778
C 0.6025353 -0.26073593 1.3211498
O -1.5830607 -0.3658989 0.48472032
O -0.7846203 0.8435622 -2.99384
H -1.2101606 -0.8349871 2.423765
H 1.2833357 -0.37129727 2.159223
H 1.1647184 0.6297374 -2.0491586
