11

C -1.0601141 0.6757097 0.502411
C 1.1541781 -0.2717717 0.45135108
C -0.36145443 0.033831757 -1.485738
O -0.7760409 -1.699116 0.12260247
C -0.40579146 -0.5022457 -0.03878212
N -0.34282875 0.32651263 -2.6057644
H -1.9986562 0.595351 1.0503988
H 1.1833005 -0.5416264 1.5070764
H -0.62171596 1.6600494 0.36225364
H 1.5379946 0.7326496 0.27487594
H 1.6911284 -1.0093442 -0.14068466
