11

C 1.2982382 0.637049 0.5730077
C 0.10105064 -0.2918678 0.41246784
C -0.7475907 0.052900705 -0.7837438
O -0.54307735 0.9499913 -1.557028
C -1.9301122 -0.8315454 -0.9745477
N -2.8436742 -1.5223961 -1.1147709
H 1.9475657 0.59742665 -0.3059241
H 1.8819126 0.342006 1.4493273
H 0.97770965 1.6739166 0.7024152
H -0.5526724 -0.26891515 1.2948968
H 0.41065022 -1.338566 0.3038991
