11

C -0.16652103 -0.74377495 -0.47415343
C 0.036879674 0.6957688 -0.975806
C -0.2041049 1.7273238 0.03621851
O -0.52392775 -1.5862131 -1.2576967
C 0.1452859 -1.0236214 0.97450274
N -0.4006379 2.5223434 0.8502901
H 0.12115627 -2.097131 1.1595925
H 1.1242323 -0.6132161 1.2427312
H -0.59144336 -0.51998353 1.6103648
H 1.0716771 0.78212154 -1.3246855
H -0.6125963 0.8563825 -1.8413582
