9

O 1.5823865 -0.28041852 -1.5395864
C 0.6192383 -0.14878196 -0.6137782
N 0.349197 0.9946805 -0.018895175
N -0.6669824 0.62600565 0.80362177
C -0.9352408 -0.6791608 0.65482706
N -0.13274258 -1.2125347 -0.24470238
H 1.9910135 0.58720636 -1.6569245
H -1.0981107 1.3073491 1.4068391
H -1.708759 -1.1943457 1.2085987
