9

O -0.10585154 -2.1546395 0.23503649
C 0.54551667 1.1273651 0.29532567
N 0.9368207 -0.112365186 0.6242432
N -0.72079 1.1368243 -0.3516658
C -0.071753666 -0.8271297 0.1378631
N -1.0448713 -0.14016023 -0.491779
H 0.41757703 1.3847525 -0.95997214
H 0.9635947 2.0431125 0.7020269
H -0.9202423 -2.4577596 -0.19107844
