10

O 2.005352 1.150492 0.4334922
C 0.9598765 0.6013323 0.20569277
C 0.43322623 -0.8475037 0.23195186
C -0.9147517 -0.24394275 -0.23553671
N -0.26555768 1.0627657 -0.19536723
H 0.9237941 -1.5132071 -0.4806868
H 0.4263349 -1.3015474 1.2243165
H -1.2372154 -0.54836196 -1.2350719
H -1.7432652 -0.35232484 0.47089905
H -0.5877936 1.9922979 -0.41968977
