10

O 0.28613368 -1.10525934 -1.76218832
C 0.07252903 0.58789069 1.07011547
C 0.06865523 -0.44838817 -0.61468339
C -0.95348700 -0.06758610 0.17143024
N 1.13761836 0.02534331 0.16179246
H 1.72277674 0.72614874 -0.28727117
H 0.16473171 0.20373120 2.08931446
H -0.56816978 -1.31655130 -2.15845669
H -2.00833606 -0.28828723 0.24852698
H 0.07754823 1.68295835 1.08141994
