10

O -0.07396132 -1.9841206 -0.68306184
C 0.28812534 1.1340586 0.35625547
C -0.7801501 0.08421731 0.5721599
C -0.03750913 -0.73951584 -0.18791093
N 1.0737089 0.09134978 -0.3997487
H 1.2606491 0.326224 -1.3719031
H 0.012295675 1.9823766 -0.2790403
H -0.9267718 -2.3761594 -0.45827934
H -1.6448442 -0.00670872 1.2135615
H 0.8284576 1.4882785 1.2379673
