11

O -1.4219762 -0.2202098 -0.4719285
C 0.47194198 -0.113515005 0.49041426
C -0.78601724 0.7609202 0.3606988
C -0.200913 -0.96319777 -0.6022441
O 1.7345701 0.44170403 0.26320243
H -0.60458356 1.7041491 -0.17801836
H -0.34597215 -2.0314429 -0.40790865
H 0.5410901 -0.62770116 1.4518666
H -1.3634166 0.97100073 1.2680124
H 0.25991297 -0.8360789 -1.5941707
H 1.7153636 0.91437125 -0.57992435
