11

O -0.7394747 0.8419142 0.06614792
C -0.31128442 -0.42510238 0.27725136
C -1.0147811 -1.3886089 0.8622553
O 1.1253352 0.5611318 -1.1259928
C 0.35999173 1.5408652 -0.48349482
N 1.0305487 -0.49666184 -0.18132459
H -0.6102929 -2.389975 0.94240874
H -1.9999938 -1.1764543 1.2609336
H 0.92710215 2.0199482 0.3254477
H 0.015729044 2.2542934 -1.22925
H 1.2171202 -1.3413503 -0.7143826
