12

O 1.68464473 -0.67951592 0.74887313
C -0.42971340 0.47726091 0.44030165
C 1.08580202 0.51226559 0.28591965
C -1.57786526 -0.78187934 -1.42612801
N -0.99061704 -0.68757388 -0.25558179
H -1.63415794 0.25639176 -1.82589543
H -0.88356814 1.37858085 0.01542394
H 1.33722692 0.70947363 -0.76815593
H 1.49923401 1.32211425 0.89444426
H -0.89691336 -1.54376409 0.28633009
H -0.69355405 0.40612023 1.50170187
H 1.49948140 -1.36947408 0.10276677
