9

O -0.8969488 -2.043727 -0.20670487
C -0.35888177 -0.80390096 -0.096474335
N 0.9181976 -0.724854 0.45130613
O 1.3666674 0.4291526 0.5317375
C -0.066820905 1.433313 -0.15615839
C -0.9005602 0.38525152 -0.44460514
H -0.257292 2.0462742 0.72591966
H 0.45544252 1.9532095 -0.95930886
H -0.25980377 -2.6747189 0.15428826
