9

O 0.05325280 -2.05349960 -0.81623707
C -0.70423823 1.31401905 -1.08822756
N 0.45917841 -1.74375554 0.27356629
O 0.79603282 -0.08275075 1.88221838
C 0.33258907 -0.34627849 0.64110175
C -0.17955755 0.54337674 -0.17941839
H -1.77902049 1.48104985 -1.13220259
H 1.10369058 -0.92688009 2.24694253
H -0.08192747 1.81471895 -1.82774331
