14

C 2.1239123 -0.16473657 -1.1950032
N 1.1231369 -0.5436027 -0.21223779
C -0.034787722 0.20600025 -0.11683562
O -0.19444694 1.2708024 -0.68863827
N -0.9980852 -0.3681886 0.6884427
C -2.1573212 0.42536482 1.0615985
H 1.843777 -0.44621104 -2.2186744
H 3.0726538 -0.64205784 -0.94093174
H 2.2525237 0.91769063 -1.1632493
H 1.0194649 -1.5374781 -0.056597557
H -0.65541023 -0.9979501 1.4022518
H -2.926396 -0.23657411 1.4654832
H -1.9216862 1.198525 1.8041348
H -2.5473351 0.918416 0.17025685
