9

N -1.38747 -0.7229782 -0.690336
C 0.6906487 -0.26530117 0.60758364
C -0.39183456 0.030600267 -0.29715285
N 2.297591 1.5177311 1.0134047
N 1.5531203 0.69501895 0.8221042
O -0.52206147 1.1686437 -0.8814587
H 0.85153884 -1.2011045 1.1221983
H -1.5655166 -1.6740001 -0.40217513
H -1.5260161 0.45139018 -1.2941685
