9

N 0.5557552 0.9336303 1.4177423
C -0.08932942 -0.4007423 -0.45861945
C -0.25907078 0.7490766 0.41695905
N -0.79620004 -0.7231939 -1.4614415
N 1.2548358 1.0960631 2.282554
O 0.9616334 -1.171842 -0.104775526
H -1.553146 -0.06570327 -1.6277047
H -1.0437049 1.4764799 0.28795835
H 0.9692266 -1.8937685 -0.75267214
