11

C -0.87794861 -0.14965286 -0.07735397
C -0.10365000 1.16635412 -0.26208869
C 1.31072002 0.98331440 -0.59408863
O -2.04307098 -0.18748709 -0.38255180
C -0.13092427 -1.31305445 0.52506270
N 2.42106902 0.80755694 -0.85307574
H -0.82851344 -2.11638282 0.76503162
H -0.17150389 1.72803383 0.67630851
H -0.60260862 1.75729351 -1.03715539
H 0.61904214 -1.67554413 -0.18604218
H 0.40738851 -1.00043144 1.42595352
