11

C -0.95762247 -0.83334917 -0.48159495
C 0.6155179 1.1812651 -0.28358912
C -0.09064108 -0.5509923 1.3757167
O 1.237392 -1.1339068 -0.63917726
C 0.37560484 -0.32829115 -0.14373082
N -0.41270268 -0.786425 2.4620404
H 0.7473044 1.4002278 -1.3458649
H -1.7874405 -0.24101909 -0.8679838
H 1.5362101 1.4391942 0.24560073
H -1.0509188 -1.9146175 -0.4488913
H -0.21270323 1.7679139 0.12747443
