11

O 0.914679 1.6377958 0.69693816
C -1.6236796 -0.16194558 -0.84956706
C 0.46034184 0.56008625 0.26116556
N -0.5920596 0.61859703 -0.7256342
C 0.8794144 -0.7177319 0.554579
O 1.8782367 -0.8356188 1.4435948
H -0.4988151 1.4268326 -1.3349984
H 0.59692484 -1.627517 0.036103938
H -2.285461 -0.043905307 -1.695677
H 2.0613136 0.07940505 1.7231015
H -1.7908947 -0.935998 -0.109606095
