12

O -2.191901 0.5714306 -0.29237536
C -1.1341884 0.10643591 0.44404885
C 0.75506836 -0.785275 -0.51744425
O -0.106635235 1.0661713 0.50906295
C 1.1340376 0.3986915 0.3611349
O -0.56342304 -1.0679405 -0.086129166
H -1.5432888 -0.11059696 1.4387645
H 1.514602 0.07086912 1.3374103
H 1.8474696 1.0846431 -0.10174348
H -1.8540719 0.85916054 -1.1504441
H 1.3725752 -1.6739616 -0.3594975
H 0.7697553 -0.5196279 -1.5827873
