12

O -0.65968557 -0.96939821 -0.30073709
C -1.17375361 0.21315533 0.26787786
C 1.09314788 0.20617686 0.58132037
O -0.06890332 1.01584792 0.60872214
C 0.73711559 -0.82472487 -0.48064871
O -2.02775698 0.88525661 -0.56654093
H -1.77051144 -0.04355660 1.15213162
H 1.21127903 -1.79915926 -0.33343325
H 1.25924229 -0.26358211 1.55966059
H 1.95009554 0.83255878 0.32236553
H -1.51610936 1.20784028 -1.31977096
H 0.96583962 -0.46041487 -1.49094740
