12

O -0.012011529 -0.3590785 1.3034234
C -1.1464231 -0.10671263 0.48816696
C 1.1605079 -0.48752028 0.5978318
O 1.9741741 0.50999016 0.49092227
C -0.5842603 0.4677135 -0.8074146
O 0.617589 -0.30087098 -0.9779375
H -0.34482348 1.5327753 -0.7187165
H -1.6740012 -1.0469602 0.29051772
H -1.2285583 0.2921593 -1.6717292
H 1.5544007 -1.5084753 0.6963354
H 1.497236 0.42278337 -0.7030525
H -1.81383 0.5841962 1.0116528
