11

O 0.48540026 2.29981847 -0.42645911
C -0.84244691 0.20913665 -0.43231088
N 1.30283887 0.32658093 0.49040198
C 0.32496384 1.13621268 -0.17390868
C 1.03289322 -0.95009941 0.72674899
C -0.36555845 -1.13274023 0.14952385
H -1.73244741 0.61714113 0.05625975
H -1.05037352 0.18084622 -1.50581921
H -0.31729326 -1.93581532 -0.59639896
H 2.17793107 0.76322525 0.76635680
H -1.01590783 -1.51430615 0.94560546
