11

O -1.4747593 1.6332424 1.2670772
C -0.7532506 0.842952 0.69374686
N -0.7580484 0.5569189 -0.6536476
C 0.22307938 -0.42833003 -1.0327462
C 0.87489325 -0.7431665 0.28872785
C 0.32267788 -0.026456345 1.2639574
H -1.3944451 1.0105141 -1.2873093
H 0.9494168 -0.033711087 -1.7552954
H -0.23695023 -1.3209643 -1.4767127
H 1.6794479 -1.4647403 0.37522626
H 0.5679383 -0.026258612 2.3169756
