9

O 1.88707400 0.14364558 -1.10230390
C 0.75578636 0.06399974 -0.41031193
N 0.60009811 0.30641922 0.82422258
N -1.36562680 -0.34173226 -0.28285698
C -0.80346530 0.06118673 1.01462297
N -0.44061041 -0.33707265 -1.11647205
H 1.69596825 -0.10671907 -2.01904202
H -1.33724641 0.95279026 1.35878110
H -0.99197797 -0.74251786 1.73336048
