12

O -2.4491227 -1.0536506 -1.1568477
N -1.1157372 -1.1921924 -0.82041293
C -0.5726843 -0.0596494 -0.6324981
C 0.894286 -0.019696694 -0.35252512
N 1.1879824 0.6708021 0.91282684
C 0.2598498 0.97121465 1.7856961
H 0.7894888 1.4505775 2.6328678
H 1.2823067 -1.0424719 -0.31061727
H 2.1849372 0.8505449 1.0450841
H -1.12464 0.8745352 -0.7119017
H 1.41939 0.5152468 -1.1560011
H -2.7560563 -1.96526 -1.235671
