12

O 0.07620024 2.2061849 -1.5770278
N -0.59376466 0.99838984 -1.277667
C -0.72366107 -1.0803019 0.2153171
C 0.8756971 0.28627852 0.66514987
N 0.22146045 -0.8701367 1.3390568
C -0.21500106 0.213939 -0.3721575
H -1.7761446 -1.1015234 0.5114662
H -0.98082197 1.6469672 -2.0738807
H -0.50731444 -1.9439391 -0.42344657
H 1.8707408 0.092206255 0.24434839
H 0.90763587 1.2046882 1.2606372
H 0.8449735 -1.6527526 1.488204
