12

O 0.37985143 -0.54730624 1.517224
N 0.21773385 1.8190191 1.2347966
C 0.04567096 -1.322955 0.32848266
C 0.08370513 0.6258191 0.87624156
N 0.29233253 0.30900198 -1.5875026
C -0.4275479 -0.042420283 -0.37980583
H -0.70641327 -2.0795932 0.5623384
H 0.16542113 1.2973518 -1.7764361
H 0.94240373 -1.7641792 -0.11270233
H 0.6190295 1.8808534 2.1730545
H -0.09036557 -0.19767508 -2.3777177
H -1.5218215 0.022083167 -0.45797265
