10

O 0.74220670 -1.97660666 -0.37196143
C -0.12627244 -0.90750828 -0.14238285
C -1.39222418 1.47747128 0.19570847
O -0.07660870 1.58235112 0.20770639
C 0.64604372 0.37493982 0.04903177
O 1.83677874 0.44713918 0.08393603
H -0.81730849 -0.78974307 -0.98753084
H -0.75321367 -1.05710141 0.75120057
H 1.63545526 -1.68912184 -0.13352276
H -1.69485670 2.53818004 0.34781470
