10

O 0.029691882 0.65179014 1.4584697
C -0.16623582 -0.44798356 -0.7946479
C -1.0191799 -0.0886793 1.7643468
O 1.4984164 1.1468207 -0.14242686
C 0.53396785 0.5046377 0.1434419
O 0.40750307 -0.3982681 -2.0667665
H -1.2312125 -0.18566422 -0.8464922
H 1.254796 0.06418165 -1.9917436
H -0.11690743 -1.4540342 -0.34815764
H -1.1908394 0.20719934 2.8239763
