12

N -0.27266374 -0.010635148 -2.0503023
C -0.1587863 -0.041863605 -0.6532376
C -1.032531 -0.31342593 0.33451796
N -0.3555453 -0.10253915 1.5505785
C 0.9347547 0.33310437 1.3308102
O 1.774944 0.66157734 2.146807
N 1.0524918 0.31180376 -0.052851852
H 0.2911506 -0.7225802 -2.5017025
H -1.2359105 -0.12294652 -2.339145
H -2.0490801 -0.66835636 0.29206884
H -0.76423097 -0.08904822 2.4683526
H 1.8154068 0.7649096 -0.5258958
