12

N -0.033067923 -1.324898 0.8135823
C -1.2255894 -0.5680923 1.0331424
C 0.19875626 0.4996794 -0.37824392
N 0.8200498 1.6751598 -0.8425259
C 0.8301844 -0.6884295 -0.002503537
O -2.1474733 -0.9810061 1.7133867
N -1.0800834 0.59130687 0.32319623
H 0.14232363 2.4094808 -0.99835855
H 0.0954975 -2.2372472 1.2279762
H 1.3805563 1.5201565 -1.6706929
H 1.8167405 -1.0563964 -0.2456801
H -0.79789454 0.16028616 -0.97327924
