12

N -1.89596639 -0.21478827 -0.67413686
C 0.59430046 -0.36914308 -0.68178066
C -0.72414384 0.04669581 -0.05459198
N -0.61567882 0.68308597 1.05770331
C 0.77440874 0.77323104 1.33202010
O 1.26610507 1.22363135 2.33876300
N 1.48762723 0.26491652 0.25086426
H 0.67583810 0.02229985 -1.70223338
H -1.94721327 -0.91656272 -1.39384018
H -2.73882432 -0.01646841 -0.15819399
H 0.68652445 -1.46308244 -0.71193027
H 2.43702258 -0.03381567 0.39735669
