11

C -0.024203153 -0.05378963 -0.10448867
C 0.32760873 0.78766406 2.0347419
C 0.44588763 1.0294529 -0.6973174
O -0.09534291 -0.19047807 1.3027024
C -0.55663085 -1.3002286 -0.7222298
N 0.695148 1.6293799 2.739889
H 0.8157593 1.8891788 -0.14610918
H 0.4684209 1.060802 -1.7787477
H -0.5126597 -1.2191688 -1.8090372
H 0.03045356 -2.167926 -0.4036183
H -1.5944414 -1.4648864 -0.41578487
