11

O 0.65519113 -0.70425097 -2.21007455
C -0.64254054 0.99901599 0.50956489
N -0.40285544 0.83730300 -0.86539625
C 0.30630979 -0.31748848 -1.11919900
C 0.53637760 -0.96265429 0.25028424
C -0.12485421 -0.01177841 1.20880200
H -1.18726197 1.86806938 0.85536722
H -0.68596486 1.47550008 -1.59117160
H 0.10269609 -1.96877162 0.25795048
H 1.61148585 -1.08142606 0.42263840
H -0.16858353 -0.13351843 2.28123437
