11

O 0.42182773 -0.5411807 -2.3105972
C 0.20660497 -0.2284377 -1.1629109
N 0.025042802 1.058053 -0.7015527
C -0.19879735 1.0776165 0.68539757
C 0.077125244 -1.1251602 0.07150322
C -0.18226139 -0.15623161 1.1913446
H 0.9965782 -1.7064869 0.19931544
H -0.32894215 -0.4222766 2.2279491
H 0.06940348 1.8653675 -1.3019457
H -0.73293847 -1.8463265 -0.083823696
H -0.353643 2.025063 1.18532
