11

O -1.2170208 1.4928834 1.6266072
C -0.47868177 -0.6928147 0.8173513
N 0.21198706 1.1807383 -0.19803916
C 0.8091402 0.21110557 -0.9000559
C 0.37971935 -1.0212696 -0.36674055
C -0.6063231 0.721007 0.8973584
H -0.972405 -1.4211111 1.4373465
H -0.7456673 -1.076515 -0.65963364
H 0.26013482 2.1699362 -0.4020333
H 0.88050425 -1.9689597 -0.5261094
H 1.4786122 0.4049996 -1.7260513
