11

N 0.5605074 -1.4124267 -1.3625487
C 0.17435947 -0.44031873 -0.4501603
C -1.0238026 0.1030607 -0.106127076
C -0.7116916 1.1316801 0.8557363
C 0.62932396 1.1203057 1.0120075
O 1.1892065 0.155395 0.21258776
H 1.4320936 -1.8591708 -1.1119965
H -0.16084519 -2.0988061 -1.5362926
H -1.997569 -0.17161995 -0.48102063
H -1.4132509 1.7824765 1.3567964
H 1.3216685 1.6894246 1.6110177
