11

N -0.88735606 -1.33852245 -1.25798506
C 0.86198616 0.05958946 -0.11584505
C -0.34924260 -0.41452099 -0.39757442
C -0.84616544 1.19170859 1.15311913
C 0.64970706 1.14409175 0.90009690
O -1.34211553 0.25899002 0.35941645
H 1.80272464 -0.26481481 -0.53603942
H -0.24070295 -2.03660584 -1.59114882
H -1.76712659 -1.72584998 -0.94679441
H 0.96419222 2.14517298 0.57073590
H 1.15409922 0.98076158 1.86201867
