10

C -0.23175985 1.1145848 0.74371815
C 0.11241937 -1.0918428 -0.82342666
N -0.8691405 0.68586427 -0.41969356
C -0.18481338 -0.09858804 1.3657389
C 0.020453533 0.16421507 -1.3442253
N -0.44950145 -1.1476432 0.46432146
H 0.6413865 0.69895214 -2.056954
H 0.32654342 2.0330138 0.901616
H 0.057886146 -0.36899468 2.388911
H 0.5765261 -1.9895613 -1.2200062
