9

O 0.30065027 -0.4442744 2.705794
C 0.40953282 -0.71452487 1.5443077
C -0.4295903 0.015344015 0.48385504
N -1.0364481 0.23006868 -1.9086502
C 0.117771596 0.6547017 -1.7632612
N -0.025562624 -0.39124596 -0.821848
O -1.3185911 0.7781248 0.7295373
H 1.1102924 -1.4749969 1.146956
H 0.87194514 1.346803 -2.1166909
