9

O -1.1418201 1.137904 -0.3495792
C 1.2453866 1.2768313 -0.21993387
C -0.9052032 -1.6288992 0.44044077
N -1.8763591 -1.1102431 -0.1311419
C -0.091029964 0.54515064 -0.21634145
N 0.07052041 -0.8096788 -0.121173166
O 1.4204473 2.2375376 0.48299864
H -0.7297002 -2.5249279 1.0291429
H 2.0077581 0.8763255 -0.9144127
