12

N 0.30241149 1.26906289 1.04886775
C -0.13106545 1.50386661 -0.15656777
C -0.01729749 -0.82293054 0.14805101
C 0.24693690 -0.01729442 1.39371664
N 2.12356922 -1.48199526 -1.25173865
C 1.18672389 -1.17431398 -0.64684904
N -0.79462301 0.20607209 -0.61662540
H -0.72993697 0.08043455 -1.62795626
H -1.77866358 0.16698334 -0.32332427
H -0.64151238 2.40691769 -0.46811585
H 0.84132486 -0.40486813 2.20911938
H -0.60786775 -1.73193459 0.29142233
