13

C -1.4357786 0.12859252 -0.5483822
C 0.69307655 -0.29909784 0.17535807
O -0.48028436 -0.31170252 -1.4764129
C -0.5715955 0.3416166 0.7066722
O 0.7541511 -1.5962884 -0.0405038
N 1.8574442 0.34400955 0.28693032
H 1.8820169 1.3332603 0.4696389
H -0.4057353 1.3994745 0.9408464
H -2.246807 -0.59874254 -0.37057287
H -0.8826312 -0.17756073 1.6211127
H 2.6812792 -0.11480579 -0.06382909
H -1.9053282 1.0737861 -0.858504
H 0.060192533 -1.5225416 -0.8423538
