13

C 0.12760212 -0.55379483 -0.29663308
C -0.75020323 0.71673776 -0.25505046
O 0.69382694 -0.93525483 -1.49974573
C 0.33122977 1.28433015 0.66804283
O 1.12093465 0.08943851 0.54246422
N -0.47463725 -1.72313025 0.22498079
H 1.29758309 -0.23088257 -1.76346872
H 0.20059886 -2.47643995 0.27078521
H -0.85625912 -1.55690814 1.14940813
H -0.84496685 1.19596108 -1.23198595
H -1.73722704 0.56630578 0.18658504
H 0.02455216 1.45840078 1.70563165
H 0.86696611 2.16523597 0.29898609
