11

N 0.22690680 -0.05986161 2.75408402
C 0.82760615 0.70834360 0.40518993
C 0.16947970 0.00848200 1.51315794
C -0.01253438 0.03056143 -0.38632778
C -0.35099770 -0.14388238 -1.81123691
O -0.69977307 -0.67759331 0.60721025
H 1.62400503 1.42690093 0.30405350
H -0.46092393 -0.71418014 3.12950504
H -1.39795588 0.12441146 -1.98504306
H 0.29097343 0.48800125 -2.42763682
H -0.21678605 -1.19118325 -2.10295594
