12

N -0.4335652 -1.6673913 2.326445
C -0.34432778 -0.7695565 1.6069218
C -0.25555906 0.36096185 0.6604456
C 1.152063 0.47995207 -0.007905067
N 1.0061371 -0.07742812 -1.3466445
C -0.23932648 -0.24354127 -1.5355301
N -1.0988647 0.14806671 -0.51116717
H -0.538152 1.2763587 1.1905818
H 1.4442072 1.5322372 -0.08137933
H 1.9284363 -0.0509396 0.5478832
H -0.66181475 -0.6226579 -2.4627635
H -1.959234 -0.36606157 -0.38688773
