12

N -0.03081075 0.21743594 2.6676629
C -0.56044316 -1.44076 -0.5844662
C -0.021075562 0.8300614 0.09696846
C -0.02651792 0.54738176 1.560515
N 0.3570001 -0.31201315 -0.7105454
C 0.86388564 1.974624 -0.19253178
N 1.5688761 2.8574111 -0.42906916
H 1.3081694 -0.5841678 -0.48978335
H -0.18922497 -2.257565 -1.2078036
H -1.5425081 -1.1458005 -0.9722576
H -0.6860802 -1.8084018 0.44366002
H -1.0412706 1.1217943 -0.18234952
