10

N -0.01165753 0.87098043 1.67135493
C 0.52278135 0.63562792 -0.47918555
N 0.57287770 1.43299740 0.62295182
N -0.47448513 -1.66554742 -0.66522931
N -0.46213525 -0.28525801 1.28544213
C -0.15382670 -0.47396788 -0.02697929
H 0.98612805 2.34636134 0.72438709
H 0.95948182 0.91099951 -1.42580445
H -0.82775883 -1.55718647 -1.60472478
H -1.11140539 -2.21500659 -0.10221258
