10

N 0.6246828 0.09670113 1.7755536
C 0.83506536 0.11625455 -0.4428235
N -0.54598117 -0.16163601 1.274002
N 1.4563463 0.27127293 0.75842327
N -1.5734007 -0.4747188 -0.860678
C -0.46379876 -0.16350783 -0.0848056
H 1.3485931 0.20221278 -1.3870293
H -2.4158878 -0.4750076 -0.29962894
H -1.6882019 0.102937974 -1.680635
H 2.4225829 0.4854909 0.947622
