10

N 0.97474784 1.4219449 0.55658805
C 0.25918472 0.3193068 0.10165247
N 0.24431045 -0.024011645 -1.1808804
N -0.4731352 -1.1426698 -1.186423
N -0.93445104 -1.5501091 -0.02948591
C -0.48312968 -0.63785094 0.8255941
H 0.5005196 1.9515002 1.273311
H 1.2549 2.0225713 -0.20756721
H -0.6483563 -1.6528541 -2.0360725
H -0.6945903 -0.7078274 1.8832834
