12

C -0.08722881 -1.0889305 0.0056130006
C -0.3161581 0.11733002 0.8412203
N 0.10501349 -0.45660228 -1.2702879
N 0.9033184 -0.5685576 0.9970353
C -0.013810226 0.9302568 -0.8240403
O -1.1193671 0.7004999 1.6485925
H -0.8108838 1.4481869 -1.3778579
H -0.85924125 1.1810684 0.4421979
H 0.8239735 -1.063522 1.8909268
H 0.8981959 1.52855 -0.78845394
H -0.53842485 -2.069971 0.10510334
H 1.014613 -0.6583086 -1.670049
