12

C -0.51946616 -0.8746964 -0.87170357
C 0.16284329 -0.8317244 0.4948347
N -0.070945285 0.51602757 -1.1308087
N -0.34737396 0.29506624 1.284483
C 0.52481383 0.575333 0.18093668
O 1.6052911 1.3926599 0.3415784
H -1.6078883 -1.0161225 -0.8434019
H -0.7897367 1.214654 -1.2945732
H -1.3328816 0.49387804 1.1189812
H -0.07298421 -1.5844368 -1.5730479
H 1.7636108 1.454631 1.290978
H 0.6847172 -1.6352698 1.0017434
