12

C 1.0723915 0.19338375 0.78148365
C -0.31732708 0.59387827 0.3493829
N -1.0186071 1.5510852 0.8058204
N -0.90691775 -0.17206533 -0.6656116
C -0.39057967 -1.2496612 -1.3409282
O -0.9934538 -1.842768 -2.2069483
H 1.4133002 0.8633256 1.5749943
H 1.7834347 0.2594105 -0.049179893
H 1.0887914 -0.8318156 1.1674725
H -0.5181995 2.0466108 1.5389504
H -1.8402741 0.11942107 -0.9295127
H 0.6274412 -1.5308051 -1.0259236
