13

N -0.6069907 -0.8610412 -1.4389858
C 0.44175902 -0.04186194 -0.8407177
C -0.08043885 0.54790884 0.48014972
N -0.52766204 -0.5329984 1.3488922
C 0.9884425 1.3196524 1.1362901
N 1.8211753 1.9432532 1.6405735
H -0.5149751 -0.87868917 -2.4491258
H -0.5144975 -1.8214954 -1.1283915
H 0.6885301 0.78420126 -1.5163426
H 1.3628483 -0.6032161 -0.628232
H -0.884947 1.2581842 0.23270334
H -1.3500252 -0.940748 0.9144436
H -0.82321894 -0.17314972 2.2487428
