13

N 0.16108654 1.015247 -0.95147556
C 0.032462645 -0.8704305 0.53061396
C -0.11591209 0.62297696 0.4743672
N 1.2114393 2.154457 2.061345
C 0.6296646 1.4351178 1.3499097
N -0.8464547 -1.4216261 -0.5227336
H -1.8124127 -1.2946277 -0.2295807
H -0.20219567 -1.2128717 1.5469788
H 1.1497784 1.0820532 -1.220096
H -0.28663364 1.8976494 -1.19911
H 1.0528284 -1.2384552 0.2966259
H -0.68584186 -2.4127278 -0.6599103
H -0.28780928 0.24323718 -1.476934
