12

N 1.18385490 0.05212153 -1.37449644
C -0.53664250 0.48237752 1.60163366
O 0.56337679 1.99663708 -0.36060178
N -0.36114601 -0.01244497 0.39203486
C 0.51361138 0.80157145 -0.48328540
C -0.81684694 -1.18853117 -0.09736711
H -1.37665318 -1.80946197 0.58786193
H -1.23697609 -0.01280417 2.25997870
H 0.01915568 1.36200714 1.89198656
H 1.84708771 0.52106440 -1.96748245
H -0.98845734 -1.24189707 -1.16485951
H 1.18963556 -0.95063975 -1.28540322
