10

C -1.1840936 0.27071416 -0.3160703
C 0.8336455 -0.4758663 0.9471501
C -2.3306205 0.042582754 -0.57166237
C 0.21649443 0.52119523 0.019006098
N 2.0146298 -0.40765193 -0.89434755
N 1.8694385 -1.0051224 0.42459297
N 1.1191863 0.40483063 -1.1419388
H 0.47611845 -0.7373054 1.9360983
H -3.3526154 -0.15663056 -0.80506146
H 0.33781657 1.5432538 0.4022329
