11

N -0.56439078 -0.02810673 2.04905678
C -0.24372662 -0.00674717 0.72333316
C -0.25095534 0.05736831 -1.43291591
N -1.08021695 -0.06300732 -0.25102798
C 1.14070395 0.16864739 -0.87514095
N 1.13917352 0.12978435 0.40350738
H 2.05764599 0.27454776 -1.44748829
H 0.17524103 -0.30175844 2.67428747
H -1.48849078 -0.35901390 2.27314118
H -0.52136769 0.94098215 -2.02510301
H -0.36361651 -0.81269635 -2.09164959
