9

O -0.16068292 -1.523536 -1.3901919
C -0.53387 1.1191714 0.82598215
C 0.48803994 -1.1285757 -0.21005918
C -1.1919037 2.2997663 1.4528285
C -0.059669722 0.100867555 0.38165396
N -0.3436799 2.8560529 0.81089884
H 0.3681253 -1.9502287 0.5016263
H -0.1367398 -0.79097766 -2.0163589
H 1.5703808 -0.98254037 -0.35637996
