9

O 0.22791061 1.9087199 -0.7695875
C -0.399177 1.1594838 0.23941879
C -0.25694168 -0.2927471 0.05006258
C -0.00915893 -2.9608176 -0.4096496
C -0.11373257 -1.4763298 -0.14243981
N 0.8804011 -2.8319173 0.38593534
H -0.02649487 1.4167398 1.2437618
H -1.4603509 1.4215245 0.20936532
H 1.1575443 1.6553442 -0.80686694
