9

O 0.9017141 0.5261796 1.8681284
C -1.9880315 0.8636067 -3.1994615
C -0.6162412 0.16441189 -1.2177371
C 0.038692478 -0.16924226 -0.2684232
C 0.80306095 -0.5293403 0.9372132
N -1.3411365 0.5341496 -2.268939
H 0.35872662 -1.4290986 1.3885406
H 1.8316537 -0.7780732 0.6588318
H 0.011561308 0.81740683 2.1018465
