10

N -1.2036971 0.8625576 0.2593389
C 0.7773413 -0.2815191 0.17197254
O 1.6727881 -1.014822 0.7352595
C -0.01712311 0.56857556 0.9880253
C -1.062392 0.2926938 -0.87923837
N 0.16101979 -0.39889395 -1.0290354
H 0.65178716 -0.5829533 1.5675353
H 0.3697183 -1.0944864 -1.7283363
H -1.781351 0.3093718 -1.6897898
H 0.4319084 1.3394759 1.6042683
