10

N -1.2259703 -0.7076621 -0.29450405
C -0.629655 -0.0058040773 0.69905835
O -1.1245257 0.20376258 1.7867107
C 0.76597214 0.55615705 0.381623
C 1.3054031 0.1923517 -0.9276928
N 1.6841712 -0.12287811 -1.9725144
H -2.1402369 -1.0973839 -0.11649591
H -0.78812253 -0.88013464 -1.185196
H 0.7073134 1.6469845 0.46156356
H 1.4456506 0.21460721 1.1674476
