10

N -0.30306288 -0.65656818 -0.14335167
C -1.59888714 -0.22609922 -0.22446709
O -1.93705535 0.88924485 -0.55134017
C 0.79811597 0.26079206 -0.33778812
C 1.51323069 0.54682326 0.91664681
N 2.08230449 0.74164121 1.90280253
H -2.31837448 -1.02915142 0.02083136
H -0.11658952 -1.57931622 0.21754403
H 0.37070100 1.18680500 -0.73150161
H 1.50961725 -0.13417108 -1.06937555
