10

N -1.1609826 -0.6931387 1.6129566
C 0.4803371 -0.13780211 -1.2637514
O 0.14754197 1.0669702 -0.9750607
C -0.21330293 1.101558 0.49602365
C -0.28629082 -0.33057168 0.8051341
N 0.49289075 -1.001661 -0.2643808
H 0.61497295 1.6603792 0.9432387
H -1.3287908 0.7233181 1.3549566
H 0.6957971 -0.39142033 -2.2971666
H 0.5578272 -1.9976315 -0.41195017
