10

N 1.5964103 -1.0743908 2.1917663
C 0.8545713 0.28905714 0.07250059
O -1.7590039 1.3209225 -0.08935766
C -1.506376 0.24129857 -0.57493716
C 1.2661781 -0.4615254 1.2700045
N -0.2638728 -0.32999676 -0.6041125
H 1.7130154 0.38282928 -0.5996085
H -0.16630152 -1.2692426 -0.9573533
H 0.52984756 1.290971 0.3656165
H -2.2644682 -0.38992295 -1.0745188
