12

O -1.45628543 1.14841537 -0.17861226
C 1.31178804 0.15308993 -0.57994038
C 0.35034594 -0.28893012 0.48601150
O 1.13861980 -0.65434797 -1.61619097
C -0.53368585 0.90855813 0.86136247
O -0.52443784 -1.36308153 0.18034949
H 0.08022232 1.80399322 0.97750391
H 1.76152568 -0.39316445 -2.30633261
H -1.86985622 0.28990126 -0.34688127
H 0.98251489 -0.54294596 1.35345616
H -1.03143293 0.68948489 1.81755490
H -0.20931855 -1.75097222 -0.64828150
