12

O -0.66046864 1.4896333 -0.8129603
C 0.18824637 0.41649538 -1.1334229
C 0.48088592 -0.4036774 0.12104498
O 1.0344999 0.45226148 1.0866917
C -0.7927186 -1.0121181 0.6678503
O -1.1327275 -0.823107 1.8112726
H -0.2554261 1.9189059 -0.044862512
H 1.1417166 0.7535259 -1.5637901
H -0.3236249 -0.19876896 -1.8823202
H 1.1684554 -1.2286034 -0.13088316
H 0.5281164 0.28994396 1.9007928
H -1.376955 -1.6544905 -0.019413767
