10

N -0.34885943 0.21372895 -1.8305217
C -0.71821827 -0.9008561 0.5205867
C 0.7613478 0.5394295 1.2541597
O -0.04384299 -0.41671923 1.6605909
C -0.28677735 -0.16153596 -0.54706734
N 0.6887452 0.716349 -0.031363472
H 1.3856759 1.0444914 1.977387
H -0.7418344 -0.42537472 -2.505694
H -1.4281999 -1.6884423 0.69758093
H 0.7319635 1.0789295 -1.1956587
