10

N -0.56279517 -0.92284881 1.75695109
C -0.24277241 -0.31204148 0.64463101
C -0.94854292 0.55879190 -0.22860197
O -0.22360348 0.98784726 -1.25679430
C 1.02470480 -0.37538407 -0.00876135
N 1.06319756 0.47608317 -1.05780334
H -1.52536321 -0.70711184 2.00697512
H 1.45840102 0.25263536 -1.96101724
H -1.95603397 0.95184504 -0.19386865
H 1.91280800 -0.90981664 0.29828929
