10

N 0.22357555 -0.7183351 -1.3820277
C 0.9617842 -0.4280991 -0.28759712
C 0.20366661 0.3487315 0.6393464
O -1.0951612 -0.3171664 -1.142541
C -1.0703659 0.344171 0.010204936
N 0.6602933 0.8876413 1.7410834
H 0.20255584 -1.6223598 -1.833921
H 2.010892 -0.6858423 -0.2480138
H -2.0118115 0.7998287 0.28731796
H -0.08542902 1.3914301 2.2161484
