10

N -0.65614516 -1.218024 1.1921798
C -0.17853126 -0.3058114 0.25765926
C -0.78202266 0.7304961 -0.3784258
O 0.13849463 1.2650535 -1.25147
C 1.2305334 0.51640517 -1.0844256
N 1.1192325 -0.42726833 -0.20897499
H -1.315639 -0.8349526 1.853096
H 0.105060376 -1.6843809 1.6666505
H -1.7560759 1.1918284 -0.36168182
H 2.0950933 0.76665395 -1.6846077
