10

O 0.95104320 -0.26898875 0.54694577
C -0.08374089 -0.79477920 -0.26548274
C 0.55114309 0.64652519 1.44880826
O -0.58502823 0.96620173 1.65863914
C -0.43981456 0.15791412 -1.38685945
O 0.06734960 1.23709284 -1.53782718
H -1.21348298 -0.23188088 -2.08143281
H -0.97903299 -1.01202116 0.32735649
H 0.29912658 -1.72667112 -0.69370687
H 1.43243715 1.02660710 1.98355946
