10

O -0.012832237 -1.3741219 -0.9577195
C -0.40555608 -0.38711998 -0.050130233
C 0.6838485 0.008750117 0.9449554
O 0.63608056 1.3849958 0.4700781
C -0.2604283 1.0727471 -0.50345147
O -0.6930983 1.7731509 -1.3655257
H -0.65298516 -1.397642 -1.6802186
H -1.3847234 -0.58562887 0.40756947
H 1.6531773 -0.4433875 0.7297734
H 0.4365171 -0.051743798 2.0046692
