11

C -0.46712494 -2.2692897 1.2298377
C -0.9485463 0.628443 -0.5714477
N 1.2989453 0.526547 0.37330592
C 0.263467 -0.24263524 -0.26633623
N -0.15152399 -1.3823305 0.5284313
H 0.6752636 -0.64907247 -1.1949872
H -0.6378534 1.4628484 -1.2056367
H 0.9593207 0.9032361 1.2542193
H 2.1028016 -0.055408116 0.5803812
H -1.7211807 0.049657628 -1.0838524
H -1.3735688 1.0280042 0.35608494
