12

O -2.1732202 -1.0345843 0.4293468
C 0.04041675 -0.27224943 -0.15546328
C 1.1480875 0.7587993 -0.13171306
O 0.19137412 -1.316649 -0.76106745
C -1.2558502 0.003799079 0.57295495
O 2.2743485 0.32681817 -0.82931083
H -1.7410715 -1.7138243 -0.10957207
H 2.0536132 -0.5454446 -1.1912868
H -1.6714922 0.9478698 0.18676722
H 1.3975056 0.97792864 0.9186384
H 0.7533437 1.6918759 -0.5639203
H -1.0170554 0.17566076 1.6346265
