12

O 0.7191139 1.6762272 -1.3740859
C -0.77494544 -0.92753637 0.86329913
C 0.13923788 -0.009878269 0.19762175
O -0.19107972 -1.5975285 1.7868663
C -0.11217217 0.56623966 -1.1880169
O 1.354041 -0.17997673 0.5913092
H -1.1514667 0.88756835 -1.3169593
H -1.8514384 -0.99209 0.7334054
H 0.10162068 -0.23584926 -1.909329
H 1.5521157 1.4394001 -0.9419643
H -0.57173467 0.65805304 0.9741559
H 0.78670806 -1.2846292 1.5836978
