11

O 0.3129176 0.6449423 -1.1874691
C -0.07502811 -0.6064599 -0.7952763
C 0.31932235 1.2994936 0.08618156
O 0.5367394 -0.5321958 1.7424631
C -0.21954854 0.1432868 0.9407134
N -0.44921574 -1.4817202 -1.6291049
H 0.52883404 -0.9698388 0.50452137
H -0.3489972 2.16476 0.05588213
H -1.3044549 0.14153276 1.120542
H 1.3357221 1.5827624 0.37665802
H -0.63629097 -2.3865635 -1.2151114
