11

O 0.289695 -1.0054418 -2.330532
C 1.0308489 -0.401157 -0.14287944
C 0.35443208 -0.15814036 -1.4787102
O 0.6799078 0.5815886 0.8261722
C -0.6158319 0.6003234 1.177162
N -1.4761835 -0.1573395 0.6492156
H 0.79535764 -1.4102398 0.2038861
H -2.3976145 0.010873942 1.0405011
H -0.7666392 1.3540785 1.953885
H -0.007133534 0.88056654 -1.6294307
H 2.1131616 -0.2951124 -0.2692697
