11

O 0.74466314 0.95672747 -0.11502061
C 0.89654069 -0.39643785 -0.53201759
C -0.13022671 1.15151460 0.88453526
O -0.55113481 -2.14246149 -1.27762475
C -0.37961599 -0.96115179 -1.12662916
N -0.81342952 0.21550767 1.38464553
H 1.66610568 -0.36448727 -1.31007262
H 1.22693325 -1.03610165 0.28994442
H -0.13553802 2.21004297 1.15597160
H -1.42053817 0.56186932 2.12077588
H -1.10375945 -0.19502199 -1.47450812
