10

N -1.536589 -1.4203901 0.750696
C -0.6803047 -0.6410896 0.2638291
C 0.14081798 0.33260745 1.0100075
C 0.92442673 0.96483284 0.13598931
C 0.63902575 0.41869056 -1.2175279
O 1.1054224 0.6939261 -2.2788825
O -0.34165573 -0.54943615 -1.0706974
H -1.9678476 -1.9941555 0.025679467
H 0.057542488 0.45284534 2.0819337
H 1.6591618 1.7421691 0.2989728
