10

N -1.9047109 0.38811237 -0.42037794
C 1.308222 0.49097353 0.37934682
C 0.11169632 1.0677233 0.1508349
C -0.7307947 -0.0865136 -0.19290617
C 1.2208511 -0.9818063 0.18050875
O -0.17882697 -1.2690938 -0.19749929
O 1.9869936 -1.8799661 0.26048326
H -2.7223642 -0.15320209 -0.6737248
H 2.2593687 0.92112094 0.6680265
H -1.3504351 1.5026518 -0.15469208
