12

O -0.40999427 0.5591859 -1.5858446
C 0.7292199 0.6042011 -0.71838856
C -0.94885796 -1.6011478 0.52188593
O 0.14385456 0.13366225 1.6554351
C 0.43564093 0.9514369 0.6898853
O -0.08124227 -1.2269768 1.4074229
H -1.1620992 -2.6571083 0.6660517
H 0.68783516 1.9141914 1.1201535
H 1.178359 -0.39171946 -0.7962331
H -1.1558725 -1.0358639 -0.36260474
H -0.8656896 1.4077557 -1.4994019
H 1.4488461 1.3423827 -1.0983616
