12

O -0.7525961 0.052354854 -0.9740092
C 0.9448512 0.8849373 -0.5005622
C -0.024175312 -0.72974265 1.4258853
O 0.43729857 2.064928 -0.15304631
C -0.88928473 -1.1590407 -0.66332805
O -0.5744793 -1.6137937 0.504328
H -1.2300937 -1.9121499 -1.3736507
H -0.6133255 0.1853533 1.492369
H -0.18663192 2.3505979 -0.8380778
H 1.199151 0.71083397 -1.5398074
H 1.5595099 0.44454497 0.2685751
H 0.12977569 -1.2788233 2.3513243
