12

O -0.27149624 0.05287199 1.84835220
C -1.04626164 -0.86955521 1.37316455
C 0.38380195 1.18871099 -0.10304954
O -0.03627402 1.22969369 1.12497232
C 0.82119702 -0.00572253 -0.85936342
O -0.21594955 -0.68966807 -1.57270819
H -1.13792455 -1.06750685 0.32572113
H 1.24744402 -0.76328308 -0.19298592
H -1.30432689 -1.55638452 2.17502239
H 1.59929094 0.31590184 -1.56525370
H 0.61438473 2.19944909 -0.42064826
H -0.65388591 -0.03450746 -2.13322366
