10

N 0.92063606 0.14220335 -0.81607467
C -1.0683545 0.2414107 -0.12990539
N 0.7541079 -0.00061442965 1.6410058
O 0.36007094 -1.0167409 -1.5837204
C -0.36860374 0.16401051 -1.4595988
C 0.15148114 0.10687911 0.432241
H 1.7085446 -0.32776812 1.6471032
H 0.18999255 -0.27041316 2.4321463
H -2.096737 0.21407788 0.19485655
H -0.55113846 0.74695516 -2.3580534
