10

O 1.47557482 -0.94383886 0.94230505
C -0.79734307 0.86993622 -0.83941280
C 0.18290580 -0.58103231 0.58892598
C -0.12159966 -0.27433600 -0.84726214
N -0.89829276 1.38257197 0.50565464
N -0.31991271 0.61854131 1.30684536
H -0.47199074 -1.39402313 0.93265356
H 2.06449362 -0.20544877 0.73558470
H 0.13107965 -0.91264681 -1.68242144
H -1.24491519 1.44027643 -1.64287315
