10

O 1.1655097 -1.4492544 0.70522386
C 0.0140461605 -0.7156215 0.4534044
C -0.15336189 -0.057365082 -0.8837925
C -0.5299622 1.1915107 -0.62976265
N -0.552656 1.4279327 0.79353714
N -0.20771404 0.398403 1.4109969
H 1.9237155 -0.8521722 0.6469539
H -0.83132976 -1.3951062 0.6312591
H -0.03304426 -0.5541249 -1.8364372
H -0.7952032 2.0057976 -1.2913829
