10

O -0.46261826 -0.3214726 1.297386
C -0.40722755 -1.1170053 0.11855327
C 0.8683314 0.5525632 -0.3498666
O -1.2744508 -0.22614343 -0.57171994
C -0.53924674 0.6722339 0.26856315
O 0.86755556 -0.89337677 -0.41923487
H 1.6711032 0.90015477 0.30414346
H 0.9495834 0.98203176 -1.3507581
H -1.0064361 1.6224773 0.5211131
H -0.6665944 -2.171463 0.1818204
