12

O 0.90308752 1.58910634 1.94096464
N 0.23202866 1.68722113 0.70279636
C 0.19299234 0.51429775 0.18838571
C 0.61298171 -0.82234586 0.39750359
N -0.32896987 -1.31331792 -0.68785696
C -0.51243182 0.13735723 -1.09339180
H 0.01920798 0.34752405 -2.02405597
H 0.89775009 2.50408071 2.24063585
H 0.69291868 -1.40705126 1.30712915
H -1.21959300 -1.72433104 -0.38906666
H -1.57103685 0.40074152 -1.17939542
H 0.08106484 -1.91328230 -1.40364856
