12

O 0.24519148 1.6501793 -1.6853541
N 0.836295 0.79689795 -0.80098695
C 0.56070316 -0.8617784 0.75978345
C -1.3750451 -0.17562093 -0.57377696
N 0.2737509 0.08659599 1.786334
C -0.018656971 -0.11676221 -0.38057077
H 0.9534964 2.255921 -1.9290782
H 0.06643114 -1.8513716 0.86497515
H 0.65541655 -0.28883526 2.662422
H -1.9458157 -0.95283675 -0.080476925
H -1.8902689 0.52128273 -1.2236129
H 1.638502 -1.0636717 0.60034245
