12

O 1.0433534 1.1995345 2.0632508
N 1.2655113 0.053706266 1.2798327
C 0.40975034 0.030223578 0.3354076
C -0.6561802 0.88198954 -0.15714277
N -0.9271072 -0.3021983 -1.3109908
C 0.22140168 -1.0347149 -0.714006
H -1.8371161 -0.74092084 -1.3577441
H 1.7557143 1.1504124 2.7091353
H -1.5310972 1.1764911 0.41410738
H -0.6621632 0.7783301 -1.5442176
H -0.11772093 -1.985441 -0.29541492
H 1.0356538 -1.2074122 -1.4222176
