11

O -1.15747923 1.72621935 0.16020645
C 1.29378467 -1.08415621 -0.16621974
C -1.01398422 -0.66263442 0.11154317
C -0.48461063 0.56125965 0.06566788
C 1.00282033 0.41420510 -0.11361708
N 0.07895582 -1.58815225 -0.02960813
H -0.08475113 -2.58488894 -0.02298010
H -2.03587950 -0.99561210 0.22641621
H 1.36711219 0.88308445 -1.03669250
H -0.54224131 2.46566596 0.09856769
H 1.57627301 0.86500975 0.70671641
