10

N 1.7646923 1.5212842 1.6026801
C -0.97521 -0.22998296 0.047833458
C 0.5126596 0.7358713 -0.5388855
C 0.3034344 -0.7224479 -0.63790756
C 1.180182 1.12498 0.6822606
H 0.14663196 -1.1142526 -1.6418556
H 0.8964851 -1.381125 -0.0020407345
H -0.912102 0.9385099 -0.07240705
H -1.0427545 -0.47241667 1.1039462
H -1.874019 -0.40042046 -0.5436239
