12

N 0.6096856 -0.27029875 2.151258
C 0.6694677 0.24870184 -1.310298
N 0.8600844 -0.53950226 -0.18283193
C -0.54875493 0.8291629 -1.5555241
C 0.07601429 -0.17933671 0.91182005
C -1.1679825 -0.08985444 -0.66554946
N -1.1567099 0.19934668 0.67306644
H 1.5428771 0.33993787 -1.9576806
H -0.029842723 -0.39741683 2.92026
H 1.5093292 -0.71996945 2.2082999
H -0.8457587 1.6543922 -2.185143
H -1.5184094 -1.0751631 -1.0076772
