12

N 2.1669834 0.3933626 -0.6948065
C 0.886398 0.16542107 -0.2830515
N 0.70549965 -0.84310716 0.58530074
C -0.5396897 -1.0248604 1.0060306
C -1.6077418 -0.23887442 0.58635694
C -1.2930402 0.76482683 -0.3214653
N -0.062543735 0.9816023 -0.7694383
H 2.2878542 0.96525145 -1.5150757
H 2.8317347 -0.34517556 -0.53034234
H -0.6911075 -1.841971 1.707624
H -2.6180356 -0.40154725 0.9420257
H -2.066311 1.4250715 -0.713158
