10

O -0.6466876 1.2910616 1.3089358
C 1.4870119 0.52387553 0.26424152
C -0.58301187 -0.72364086 -0.58036804
O 1.432975 0.33468187 -0.9960713
C 0.22248948 0.7116896 0.74059546
O -1.7000874 -0.9548831 0.08685173
H -2.0746064 -0.13337494 0.42490909
H -0.67898625 -0.20431687 -1.5175952
H 2.4224138 0.69991404 0.79737425
H 0.118489124 -1.545007 -0.5288733
