10

O -0.39457687 -1.60644843 0.29296626
C -0.42758646 -0.21007707 0.29851657
C 0.92916051 0.44382119 0.54459383
O 0.83728310 1.14001519 -0.73456866
C -0.31906467 0.50650516 -1.05566706
O -0.93124162 0.56254905 -2.07543954
H 1.75837304 -0.26453416 0.54832003
H 1.00077421 1.15340020 1.36902467
H -1.21422376 -1.92812543 -0.10283510
H -1.23889749 0.20289445 0.91508887
