10

O 1.2526956 -1.3881931 0.9904688
C 0.35936165 -0.9492322 0.015266765
C -0.019671109 0.4974554 0.22072564
O 0.41719046 1.1451931 1.1474453
C -0.98099715 1.1531923 -0.7589354
O -1.4495759 0.559205 -1.6931998
H 1.4062098 -0.63706195 1.5824541
H 0.78492504 -1.0493909 -0.9956778
H -0.5668636 -1.5460339 0.020235095
H -1.2032748 2.2148664 -0.52878284
