15

N 1.40843110 1.33660387 -0.26604460
C -0.85512879 -0.79689083 1.07897284
O -0.48807781 0.57574912 0.99396957
N -0.04652377 -0.40777179 -1.00616626
C -0.00097997 -1.45947756 0.00138694
C 0.05331984 0.84791990 -0.29308630
O -0.67312558 1.87075421 -0.88108618
H -0.64951972 -1.15509569 2.09247847
H -0.41946405 -2.39707391 -0.37024819
H 1.01780348 -1.64813866 0.38069392
H 0.67115032 -0.45785364 -1.72137143
H 1.95732467 0.81892646 0.40721182
H -1.46434461 1.47108366 -1.25761261
H 1.41232049 2.32056199 -0.02275444
H -1.92318572 -0.91929672 0.86365624
