15

N -0.47226152 -2.2377028 1.30003
C -0.3199593 -0.9234662 0.9014025
O -0.8054825 0.0023112772 1.5440463
N 0.4149754 -0.76138234 -0.24225944
C 0.9340382 0.53857774 -0.6730339
C -0.13174611 1.5821625 -1.0151033
O -0.60520965 2.3030095 0.089781955
H -1.1845816 -2.3448825 2.0079525
H -0.476945 -2.9542375 0.5891121
H 0.96772015 -1.5582514 -0.5239533
H 1.5265731 0.33955353 -1.5715858
H 1.5982168 0.9662937 0.0886526
H -0.939685 1.0841835 -1.575902
H 0.3206874 2.3207905 -1.6872848
H -0.8263405 1.6430409 0.76814437
