15

N 0.85911185 -1.8282866 -1.0313749
C -1.1709132 0.6501461 0.91637623
O 1.6545873 -0.5378351 0.6813893
N 0.32431924 0.43715283 -0.9636322
C 0.8140767 -0.6668018 -0.3376743
C -0.2339142 1.42912 -0.048015673
O -0.5563602 -0.5376782 1.2497226
H 0.113917805 -2.038766 -1.6723897
H 1.2051386 -2.601435 -0.4840635
H -1.3793669 1.2972032 1.7838904
H -0.25554305 0.24992539 -1.7635363
H -2.137477 0.47390652 0.40625817
H 0.59645957 1.8783722 0.50540257
H 0.8979603 -0.42054197 1.3818892
H -0.73199695 2.2155185 -0.6242419
