9

O -1.5714592 -0.6253147 -1.144466
C -0.017631551 -0.9781419 -1.1195245
N -0.5918686 0.85404927 0.61152697
N 1.458873 0.5441653 1.3747976
N 0.48807272 1.3237741 1.365959
C -0.3947422 -0.102495804 -0.1761429
H 2.1591463 1.0109075 1.9575337
H -1.6754982 0.012638277 -1.8669678
H 0.1451077 -2.0395818 -1.0027162
