9

O -2.4514284 0.28493705 -0.7715939
C -0.12339739 -0.15529485 -0.49722683
N 0.794628 -0.8780107 -0.11278736
N 2.3639305 0.008133744 1.0909961
N 1.3381733 -0.68039703 1.1702635
C -1.1289527 0.5187253 -1.0106521
H -0.9631813 1.3470676 -1.6900413
H 2.7096114 0.0665621 2.0536554
H -2.539383 -0.51172304 -0.23261358
