12

N -2.09007755 1.11083296 0.21406645
C 1.67493556 0.00934948 0.33442192
N -0.59801682 -0.71952695 -0.70123640
C 0.50748961 -0.90785360 0.25365813
C 1.88657604 -1.14423237 -0.23148849
C -1.16979326 0.52783821 -0.57265901
N -0.38179702 0.65915521 -1.54086320
H 2.55120363 -1.82409055 -0.73763844
H 2.05262710 0.98055728 0.61739136
H 0.12997845 -1.44259600 1.13215161
H -2.38718501 0.63491937 1.05152316
H -2.17594083 2.11564686 0.18067271
