12

N -0.24784957 1.2222778 2.0230684
C -0.18954782 -0.9568903 -0.44104308
N -1.166717 0.06780129 -0.035355408
C -0.5794128 1.0502684 0.73224634
C 1.0638156 -0.6375237 -1.1743912
C 0.11022113 -1.1830678 -1.8735597
N -0.61250913 1.5505486 -0.41850382
H -0.25533658 0.42408395 2.638642
H 0.345877 2.0025918 2.2612646
H -0.26445052 -1.5361127 -2.8196597
H 2.0509021 -0.20080654 -1.144299
H -0.25499234 -1.8031712 0.25158998
