12

N 2.168965 0.39096326 -0.6964114
C 0.8869615 0.16423719 -0.28431904
N 0.7040508 -0.8430352 0.58430064
C -0.5408291 -1.021921 1.0064906
C -1.6086215 -0.2378244 0.5883847
C -1.2939501 0.76582116 -0.32089671
N -0.06265019 0.9803424 -0.7714683
H 2.2919314 0.9626708 -1.5161957
H 2.8326864 -0.3484706 -0.5300411
H -0.6928267 -1.8380836 1.7098348
H -2.6191838 -0.3991709 0.9435701
H -2.0665338 1.4244708 -0.7132488
