17

C -1.76946326 0.23314794 1.66509378
N -1.07025269 -0.28946152 -0.80467595
C -0.13173663 -0.05942533 0.02632636
O -0.39383124 0.24207785 1.30662219
N 1.22849575 -0.10255489 -0.20355226
C 2.19058086 0.45576878 0.72775485
C -0.69820417 -0.64432803 -2.15695429
H -1.79269639 0.49786697 2.72371781
H -2.20822381 -0.75640226 1.50926696
H -1.61064079 -0.84111528 -2.72652727
H -0.07968218 -1.55262969 -2.20277589
H 3.18994848 0.16231320 0.39739500
H 2.02306167 0.04217379 1.72440304
H 2.14099578 1.54962571 0.79404941
H -0.15886128 0.16390734 -2.67758995
H -2.33334617 0.96081422 1.07510167
H 1.47385679 -0.06177890 -1.17765552
