17

C -1.1008469 1.7412723 1.3091992
N -0.95234144 0.36496228 -0.9146478
C -0.13534787 0.0555281 0.013288551
O -0.11981706 0.7208645 1.1776946
N 0.7966365 -0.9624802 0.012444865
C 1.8617536 -1.0397364 0.99439347
C -0.9273183 -0.4286423 -2.1240165
H -1.1335222 -1.4928551 -1.9379734
H 1.4404684 -0.9948894 2.000842
H -0.97755414 2.5058312 0.53731745
H 0.031107519 -0.35473594 -2.6636038
H -2.109821 1.3267711 1.230698
H 2.3627315 -2.0033498 0.8741446
H 1.0085999 -1.3137484 -0.90539175
H -0.94050485 2.1685522 2.3006744
H 2.6007826 -0.23550512 0.89229155
H -1.7050065 -0.057839148 -2.7973554
