11

N -0.19725172 -1.77588745 0.19485677
C 0.11329973 0.57885007 0.83223221
O 1.73533837 -0.91395419 1.08594090
C 0.25936310 1.34314929 -0.43231684
C 0.58520685 -0.78851323 0.67557425
O -1.10133232 0.99816334 -0.78797301
H -1.15309898 -1.60472254 -0.06348667
H 0.13917091 -2.72551221 0.27314311
H -1.68166966 1.52979483 -0.22285505
H 0.40314428 2.42361022 -0.33523751
H 0.89782961 0.93502178 -1.21987887
