11

N -0.34544486 -1.2636395 -1.2306652
C -0.07128009 -0.24057433 0.9887153
O -0.7997292 1.4769095 0.09662183
C 0.34340858 -1.1386708 -0.07823198
C 0.44104022 1.1341102 0.7599306
O 1.3392076 -1.7817082 0.24086979
H -1.4737668 1.5572476 0.7879979
H -0.09734451 -2.0232737 -1.8491296
H -1.1904159 -0.7443358 -1.3920045
H 1.2358307 1.2808601 0.024244485
H 0.6184942 1.7430745 1.6516513
