9

O -1.7723317 0.15524557 0.31793803
C -0.45802432 0.096034914 0.010550116
C 1.7885298 -0.12696181 0.4314385
O 1.5479878 0.21712783 -0.8593466
C 0.2068996 0.35331815 -1.1235899
N 0.53308153 -0.19288696 0.94668174
H -2.1110413 -0.73665243 0.47736302
H 0.35888627 -0.39219195 1.9204366
H -0.09398763 0.6269667 -2.1214716
