9

O 1.0060639 -0.9478898 -1.5003492
C 0.30966532 -0.3501488 -0.5196139
C -0.9403591 -0.6216386 -0.07932372
O -1.1974012 0.26783073 0.9384102
C -0.0900083 1.0048392 1.03734
N 0.84582144 0.6924752 0.20166026
H 1.8622884 -0.4993572 -1.5455343
H -1.7185487 -1.3242449 -0.3251748
H -0.07752164 1.7781341 1.7925851
