9

O -1.3113906 1.1309133 -0.19854026
C 1.5571203 0.1348799 0.17880045
C 0.2567784 -0.61084723 0.17858683
O -0.48036733 -0.555725 1.3095572
C -0.7785631 0.068763465 -0.66257083
N 2.5411313 0.73780805 0.21000576
H -1.2310673 -0.33971584 -1.5668746
H 0.46249762 -1.6219043 -0.21880409
H -1.0161395 1.0558275 0.7698395
