11

N 0.6070593 0.68997514 -2.380234
C 0.23928484 0.12002399 0.95249975
C 0.016373629 0.14151928 -1.3765397
C 0.8125434 0.65428126 -0.05848754
C -0.6955587 -0.68985957 1.5459027
O -0.9353222 -0.6297428 -1.1750617
H 0.11654109 0.37580797 -3.2230537
H 0.2845673 0.027180817 2.2376645
H 1.6518668 1.3248664 -0.16402233
H -1.6401963 -0.2809465 1.8978504
H -0.45715913 -1.733106 1.7434818
