11

N 2.25265538 0.78605155 -1.40519434
C 1.23678598 0.48651931 -0.74959670
C 0.26665802 1.11835024 0.15024774
C -0.31717524 -0.08621443 0.20857911
C -1.46500887 -0.77100477 0.83258329
O 0.56078054 -0.77270701 -0.63857262
H 2.61556178 -0.01520658 -1.92308893
H 0.11395114 2.10265743 0.56112390
H -2.02613427 -0.06833583 1.45147830
H -2.12332110 -1.17816156 0.05848207
H -1.11475326 -1.60194807 1.45395833
