10

O 1.8158399 -1.6127058 0.32141194
C 0.22679119 -0.04881822 0.5826888
C -0.13609278 -0.08496191 -0.6822703
N 1.2828394 -0.8852926 1.1187097
O -1.2875245 1.6228812 1.3602871
C -0.3941921 0.85710746 1.5973033
C -0.436367 -0.17418694 -1.9400173
H -1.1994883 -0.86889017 -2.2832677
H 0.07100401 0.44253793 -2.6785836
H 0.057190314 0.7523291 2.6037385
