10

O 1.1164149 0.005798675 0.9905146
C -0.4632386 -0.98988765 -0.5806726
C 0.9052379 1.0536085 0.037593246
O -1.2075568 0.37627807 1.1755639
C -0.7132802 -1.8533986 -1.3750203
C -0.1399366 0.07253258 0.3598949
H 0.830136 2.0547934 0.4617373
H -0.9305432 -2.626953 -2.078243
H -0.87844366 0.94345564 1.8891227
H 1.4812101 0.96377224 -0.88049114
