10

O 1.246821 0.7144753 1.0073681
C -0.021858983 0.38481787 0.53598326
C -0.2888379 1.0493331 -0.812619
O 0.5814635 1.6572499 -1.3809339
C -0.39769506 -2.2298844 0.11361227
C -0.22568005 -1.0623599 0.33321518
H -0.7775756 0.74780166 1.2493657
H 1.7239736 1.094557 0.2518885
H -1.3019148 0.91919273 -1.2348627
H -0.5386957 -3.2751832 -0.063017525
