11

O 0.7840482 -0.113724895 1.1584358
C -0.3351419 0.6022463 1.1804606
N -0.79882306 0.7510682 -0.15306811
C 0.18742956 -0.10794293 -1.1702745
C 0.91457 -0.8592923 -0.09065991
O -0.85447645 1.0875963 2.1455016
H 0.5258937 -1.8646015 0.13552561
H -1.7923799 0.88221973 -0.29852974
H 1.985989 -0.9295465 -0.3079873
H -0.4780899 -0.7428785 -1.7556219
H -0.139019 1.2948562 -0.8437821
