11

O -2.016403 0.9874102 1.374284
C -1.0828453 0.6107219 0.7224265
N -0.9757107 -0.5512464 -0.01398367
C 0.40899572 -0.80644834 -0.35732174
C 0.9411364 0.630607 -0.3222115
O 0.07822419 1.3119656 0.58828354
H -1.605322 -1.2982713 0.23483463
H 0.90904343 -1.4425886 0.382142
H 0.51330847 -1.2612404 -1.3456968
H 0.8619501 1.1109005 -1.3032337
H 1.9676231 0.70818967 0.040476643
