11

O -1.18633537 0.78833751 0.16852259
C -0.22109956 0.80278148 1.04925743
N 0.83111581 -0.15609850 0.58379780
C -0.82541206 -0.12387475 -0.95699979
C 0.67023766 -0.11646442 -0.93557402
O -0.11416161 1.45012036 2.04982045
H -1.38577792 -1.05217195 -0.70733710
H 0.66137628 -1.05450375 1.06698406
H 1.07859194 -1.05080849 -1.33288279
H -1.24983359 0.31030481 -1.86352904
H 1.74129883 0.20237753 0.87794032
