10

C -0.54611695 1.25708 0.20398788
N -0.1705241 -0.116786815 -0.052662954
N -0.99092686 -1.062637 -0.40582162
C 1.0513817 -1.9610612 -0.28807825
N 1.068107 -0.65216494 0.020708958
N -0.3179696 -2.1542146 -0.55319756
H 1.8566798 -0.08206313 0.27964884
H -0.28438848 1.5271642 1.2293302
H -0.041299637 1.9208688 -0.501552
H -1.6249428 1.3238149 0.06763661
