10

O -1.92112506 0.24827648 -2.00618926
C -0.86444598 0.09809814 -1.54211655
C 0.56879471 -0.33131775 0.42473992
C 0.34761322 -0.05424727 -1.04549037
N -0.52805019 0.22903296 1.21050023
H -0.45824795 -0.06192593 2.18072241
H 0.59644386 -1.41031414 0.62124671
H -0.47984310 1.24230335 1.20233149
H 1.56170155 0.05970093 0.70037063
H 1.17715876 -0.01960700 -1.74611573
