10

O -1.6875433 -0.5961675 -1.5282558
C -0.8055998 -0.26833034 -0.7789341
C -0.3754676 -0.6182779 0.6596031
C 0.7697823 0.4006639 0.44515276
N 0.24279027 0.6083402 -0.89994216
H -1.1096034 -0.35024926 1.4217111
H -0.062248617 -1.6557992 0.7908095
H 0.72292006 1.2896689 1.0798223
H 1.7788233 -0.020785417 0.46726188
H 0.5261466 1.2109364 -1.6572291
