9

N 0.4650218 -0.048998907 -1.1654191
C -0.7989213 0.5228434 0.6884232
C 0.0010554643 -0.4209736 1.2668548
C -0.48656112 0.6985714 -0.71679777
N 0.82567054 -0.7929021 0.04649034
H 0.72389203 -1.7901682 -0.14639069
H -1.5754951 1.0789113 1.2003744
H -0.97120386 1.38558 -1.4044461
H 1.8165416 -0.6328632 0.23091099
