11

O 0.81787753 0.18744528 -1.5491203
C -0.50319123 -0.15519962 -1.1779436
C -0.8308524 -0.4839924 0.23317029
C 0.37526146 -0.4717505 1.097319
O 0.11868044 0.95002794 1.3023703
H 1.3608531 -0.5365703 0.6355832
H 1.0063639 1.0519966 -1.161437
H -0.74739224 -1.1016426 -1.6909076
H -1.2284793 0.58121216 -1.5597565
H -0.6854592 1.0144148 1.8393016
H 0.3163377 -1.0359414 2.0314214
