11

O -1.1202295 1.2504443 -0.4862495
C -0.6133436 0.73066247 0.7181691
C 0.46337095 -0.29877165 0.45391214
C 0.42559505 -1.1354941 -0.74042624
O 1.2806726 0.008896063 -0.6716121
H -0.34616694 1.4280717 -1.0406417
H -0.19449526 1.5251279 1.357314
H -1.4469812 0.2702877 1.2584385
H 1.0145911 -0.65293103 1.3257197
H -0.40989918 -1.0346566 -1.4291369
H 0.94688624 -2.0916367 -0.7454868
