10

O -0.8195166 -1.7353292 1.3014213
C 0.1956096 -1.7492914 0.61185616
C -0.44603533 0.2784443 -0.17097297
N -1.5171341 0.56342447 0.3676565
O -0.36143783 2.331044 -1.5328714
C -0.18306448 1.8635033 -0.45853126
C 0.56126046 -0.65854007 -0.25828105
H 1.4344581 -0.5995733 -0.8880472
H 0.26486805 2.3287456 0.4259271
H 0.87099195 -2.622428 0.6018428
