10

O 2.002642 1.1548738 0.43123725
C 0.9592426 0.6020624 0.20609179
C 0.43358013 -0.8460074 0.23150781
C -0.91345274 -0.24509344 -0.23575728
N -0.26678383 1.0616778 -0.19832581
H 0.9262258 -1.511482 -0.47946712
H 0.42719853 -1.3017898 1.2240764
H -1.235682 -0.5540862 -1.2352575
H -1.7418661 -0.35374683 0.47074425
H -0.59110403 1.9935918 -0.41484976
