12

N -0.45528784 -0.45322582 1.9136379
C -0.1406952 -0.1360019 0.59901977
C -0.92819947 0.72328323 -0.174929
N -0.5962142 1.0831499 -1.4112592
C 0.5391832 0.5792909 -1.8942236
N 1.3677375 -0.24752377 -1.258632
C 1.0216922 -0.599898 -0.02274541
H -1.4311534 -0.3802655 2.160269
H -0.036039058 -1.301009 2.266122
H -1.8537375 1.1346442 0.22440535
H 0.81715065 0.8730888 -2.9027386
H 1.6955634 -1.2755332 0.5010735
