12

N -1.24304447 -0.36932819 0.70226778
C -0.72617849 -1.39276092 1.26974862
C -0.19024134 0.11829118 -0.13231546
N -0.48156571 0.65741026 -1.46022992
C -0.03603580 1.56953433 -0.42574307
N 0.62024714 -1.70797683 0.94805940
C 0.94809983 -0.79485008 0.10590107
H -1.26282464 -2.01640205 1.97626700
H 0.97288956 1.97852389 -0.47143807
H -0.80148045 2.24490059 -0.05465558
H 0.27047439 0.44014028 -2.10706977
H 1.92966027 -0.72748262 -0.35079228
