11

N -1.431927 0.41317332 1.9208841
C 0.09024534 -0.8391813 0.09811987
C -0.72741616 0.47089362 -0.5553047
C -1.2166142 0.5970507 0.75529706
C 1.2839522 0.021410678 -0.37093782
O 0.47133693 1.1262144 -0.86142856
H -0.10690052 -1.6782311 -0.5795001
H 1.9493014 0.3866345 0.4219764
H 1.8924805 -0.3869316 -1.1887492
H -1.4584963 0.39912626 -1.3620132
H -0.745962 -0.5101594 1.7216564
