11

O -0.52867692 -2.30507222 -0.94600448
C -0.75859828 0.64857653 0.81786221
N 0.74150278 -0.35366926 -0.64279990
C 0.54015834 0.70256379 0.05901901
O 1.35545335 1.74091935 0.13176249
C -0.41937407 -1.11648478 -0.35796638
N -1.30080782 -0.64045360 0.43983089
H -0.58885783 0.72204900 1.89953432
H 2.12118057 1.55654025 -0.43450732
H 0.26052018 -2.42649560 -1.49554202
H -1.42249991 1.47152664 0.52881050
