11

O -1.5723171 0.06183308 1.8015445
C -0.6999555 0.015414729 0.78332925
N 0.39889053 0.71006995 0.66338724
C 0.9212082 0.29943705 -0.5414266
O 2.0791028 0.820142 -0.996786
C 0.14169873 -0.63951427 -1.1458031
N -0.9261833 -0.8120909 -0.2506705
H -1.2212749 0.70391846 2.4317687
H 2.3700142 1.4515314 -0.32632592
H 0.22444142 -1.1820126 -2.0730224
H -1.7156247 -1.4287288 -0.34599587
