11

N 0.28525435 1.85416488 -0.35462028
C 0.75155796 2.83591489 0.08010077
C -0.22529329 -1.13629612 1.06123279
C -0.23710189 0.61937256 -0.83824261
C 0.40163975 -0.55218843 -0.12289672
O -0.31314234 -1.76422664 -0.21209219
H -1.32136547 0.59571319 -0.68358003
H -1.15969220 -0.71792577 1.43479212
H -0.05120144 0.55661828 -1.91582947
H 1.48193099 -0.64000058 -0.24688991
H 0.38741349 -1.65114630 1.79802578
