11

N 0.7943931 0.29808566 -1.7103033
C 1.669841 0.8474393 -2.2598996
C -0.23168926 -0.3660609 -0.9771437
C -0.2992939 0.5400749 1.4446049
C 0.13726234 -0.4744417 0.48723128
O -0.9449508 -0.7242827 1.3557358
H -0.38364616 -1.3616823 -1.4076523
H -1.1706505 0.18918706 -1.077937
H -0.89164555 1.3860866 1.0966604
H 0.27750346 0.71071476 2.3509884
H 1.0428761 -1.0451207 0.6977156
