11

O -0.18107185 -2.636453 -0.26164222
C 0.3350939 1.0061934 -0.6241897
C 0.12731782 -0.42751193 0.97289425
C -1.1021404 0.33866486 0.784482
N -0.96540064 1.2319239 -0.15744236
C -0.057839666 -1.4863112 -0.11964879
N 1.0738457 0.44209352 0.41402638
H 0.0818665 -0.3695272 -1.126876
H 1.982133 0.060132086 0.1999601
H -2.062331 0.1174695 1.2379079
H 0.76852673 1.7233257 -1.3194714
