11

O -0.8302867 -2.1851964 2.3329182
C -0.017895754 1.2394176 -0.7978991
C -0.19515271 -0.6029014 0.53116745
C -0.5522825 -1.4033164 1.5152608
N 1.277898 0.55062896 -0.78494704
C 1.1658478 -0.45136636 -0.0097878035
N -1.0144287 0.38479453 -0.118489966
H 0.11054404 2.1895425 -0.2656168
H -0.32985002 1.4624224 -1.8225627
H -1.609288 -0.06930995 -0.80528855
H 1.9948945 -1.1147156 0.22524558
