9

N -1.1727499 2.0142987 -1.3077028
C -0.5837719 1.524019 -0.44382477
O 1.0348834 -1.1679752 1.4606581
C 0.437038 -0.6257343 0.55840725
C 0.5324202 1.6283267 1.6099207
C 0.14167541 0.86303174 0.59648216
N -0.027573964 -1.2424687 -0.54816663
H 0.15304674 -2.2332788 -0.6373733
H -0.514968 -0.7602193 -1.2884008
