9

N 1.2253506 0.80017287 -0.40605208
C -1.7132503 -1.1759237 0.3667583
O 0.24603617 -0.293875 -2.1627355
C -0.67305344 -0.57429105 -0.04609709
C -1.7765132 -0.7220815 2.0774302
C 0.3095556 -0.015972178 -0.98415405
N -0.7711582 -0.2293472 1.5825406
H 1.2342347 0.99322665 0.5794194
H 1.9187977 1.218091 -1.0071096
