9

N 0.14114571 -0.02168219 -2.23798299
C 0.43960174 -0.04402451 -1.00687653
N -0.56865968 0.07061693 -0.03696520
C -0.21292566 0.02545850 1.17881402
O -1.08925812 0.11868114 2.18073947
H 0.98431576 -0.11915416 -2.79778398
H 1.46973770 -0.15209378 -0.62464606
H 0.80433594 -0.08901896 1.56487699
H -1.96829323 0.21121701 1.77982383
