11

C -0.73041517 -0.16990641 -2.313258
C -0.16323674 -0.120722815 -0.97176206
C 0.32161975 -0.088070236 0.1297042
C 0.9788567 -0.0997001 1.439253
O 2.08662 -0.56433386 1.6131482
N 0.24570654 0.47089645 2.4371936
H 0.006881499 0.1544342 -3.0536711
H -1.6087955 0.47697273 -2.3966155
H -1.032603 -1.1931796 -2.563757
H 0.6113454 0.3972186 3.3755734
H -0.7159798 0.7363911 2.3041904
