11

C 0.33148563 0.07990873 0.09273749
C 0.49381235 -0.6837057 -1.0146452
C 1.2614104 0.6395767 1.1109333
C -1.6844809 -0.19064851 -0.69239426
O -1.0184503 0.4382297 0.24988094
N -0.90247536 -0.81134254 -1.5317264
H 1.2573453 1.7351092 1.1025304
H 2.2706156 0.2922925 0.87995696
H 0.99894714 0.30643925 2.1207376
H -0.24952635 -1.7304131 -1.587992
H -2.7586837 -0.07544626 -0.7300186
