11

O 1.7506953 -0.91982836 -1.8364426
C 0.73117286 -0.26685223 -1.917353
N -0.031133495 0.08651425 -0.8541382
C 0.34039086 -0.32268122 0.49051997
C -0.5788815 0.2509113 1.4706954
C -1.3436182 0.7238982 2.2664778
H 0.3227484 0.10609737 -2.8755832
H -0.876334 0.62038505 -0.9940294
H 0.33163995 -1.4175338 0.5635165
H 1.3663371 0.0008131998 0.6996463
H -2.0130174 1.1382761 2.9866898
