11

N -0.97736424 -1.7065645 0.5965459
C -0.34684405 -0.5382222 0.15335922
C 0.96560556 -0.1600201 0.26787922
N 1.0404859 1.0513151 -0.39990413
C -0.1945402 1.3237331 -0.8758322
N -1.0601281 0.39186928 -0.5572073
H -1.9801686 -1.6044343 0.51589185
H -0.72706383 -1.9707443 1.5384316
H 1.8282915 -0.6182574 0.7249759
H 1.864884 1.6152413 -0.5160495
H -0.41315803 2.2160842 -1.4480906
