11

N -1.11108776 -1.31434468 0.28824170
C -0.15423567 -0.31156724 0.04661434
C 2.25954325 -0.59741763 0.59359429
N 1.05532348 -0.41925367 0.44627521
C -0.55309802 0.84436193 -0.76078228
N 0.21752901 1.84501767 -0.93459633
H -1.89455794 -0.99537474 0.84441564
H -0.70346675 -2.14296681 0.70415113
H 2.67456583 -0.16727125 1.51326878
H -1.55714843 0.73927279 -1.19082277
H -0.23336708 2.51954381 -1.55035975
