11

C 0.9148874 -0.8094458 -0.25054064
C 0.1540843 -0.89488816 -1.3374951
O 0.71846557 -0.05619142 0.8764537
C -0.5479428 0.53098774 1.0448865
O -0.789014 1.5789212 0.15659767
H 0.45453608 -1.5749449 -2.127077
H -1.3293355 -0.2161449 0.8738805
H -0.7369983 -0.29828227 -1.4879509
H -0.11322259 2.253692 0.3033198
H -0.55897963 0.8652964 2.0889835
H 1.8335195 -1.3789997 -0.14105794
