11

N 0.0992237 0.7120201 -1.7211196
C -0.0062978324 0.16889358 -0.43682602
C 0.8919196 -0.50179005 0.36992696
C 0.13364556 -0.85961336 1.507914
N -1.1167027 -0.4456101 1.4331112
N -1.1803315 0.18096149 0.23568222
H 1.0453631 0.6360312 -2.073621
H -0.19965898 1.6766146 -1.7756201
H 1.9339669 -0.69482535 0.16743167
H 0.4659239 -1.3992507 2.3837483
H -2.0670521 0.52656853 -0.09062726
