10

N -1.48933651 0.95884124 1.39499665
C 1.20494999 0.04998781 -0.62681782
C 0.11655551 -0.62159966 -1.28306179
C -0.72308915 0.17385296 0.88389026
C 0.15282868 -0.67638019 0.31036149
H -0.65573634 0.07911985 -1.63205892
H -2.47013053 0.97168825 1.13599131
H 1.30495104 1.13568159 -0.53002890
H 0.40590876 -1.59645129 0.82541659
H 2.15309842 -0.47474100 -0.47868882
