12

O 1.187492 0.37897432 -0.91580033
C 0.6505509 0.14545493 0.3684309
C 0.27534726 -1.3266913 0.46410257
O -1.48346 0.7047924 -0.82832867
C -0.5122921 1.07427 0.6077034
O 0.49397457 -2.1041067 -0.43859765
H 1.3804895 0.35349432 1.1715908
H -0.74368006 0.5371422 -1.4525949
H -0.21581526 -1.6367744 1.4031079
H -1.2615879 1.6966892 -0.49223208
H 1.4013673 -0.50008404 -1.2759591
H -1.1723858 0.676839 1.388577
