12

O 0.4884859 1.4120797 -1.2770545
C 0.937255 0.9528768 -0.03669066
C 0.00073745643 -0.11054234 0.5247568
C -1.6063228 -0.7001912 -0.21573655
N -0.2692979 -1.128497 -0.5044506
H 0.2747356 -0.52912986 1.4954796
H 0.22763658 0.62236214 -1.7735287
H 0.98758453 1.8100717 0.64354026
H -1.9129789 -1.2419578 0.7244313
H -1.0120245 0.45714188 0.6241969
H 1.9404609 0.4984216 -0.09752871
H -0.056271747 -2.0426354 -0.107414976
