10

N 0.01636507 0.17496035 0.4607848
C 1.0381739 0.07286417 1.3363141
O 0.9058754 0.75591433 2.4417207
N -1.1386504 -0.17121334 -1.5138876
C -0.03533241 -0.5177341 -0.7708705
O 0.7800902 -1.342314 -1.0985539
H -1.5474765 0.74507886 -1.4114562
H 1.8723804 0.07399671 2.2373443
H -0.7611918 0.7558683 0.76985294
H -1.1302335 -0.5474212 -2.451249
