10

N 0.6020984 -0.81128645 1.5065243
C 0.013643749 0.16886309 0.7446178
O -0.40185717 1.2163846 1.1877369
N -0.10180522 -0.17508084 -0.60540897
C -0.6398577 0.67388654 -1.560328
O -0.76961476 0.34428006 -2.7140558
H 0.83180135 -0.51760143 2.4452069
H 1.2533215 -1.450788 1.0787698
H 0.13438728 -1.1021267 -0.93284357
H -0.9221175 1.653469 -1.1502191
