10

N 0.14400034 -0.5684839 1.5161786
C -0.51902485 0.08512734 -0.5251166
N 1.6787328 0.7973754 0.35675505
O -1.6151174 -1.7362257 0.44057605
C -1.4218106 -1.0022515 -0.525196
C 0.517813 0.076727174 0.50434154
H 1.6709434 1.4919018 -0.3744116
H -0.68324965 0.9861932 -1.1082336
H 2.1494808 1.0675088 1.2059984
H -1.921768 -1.1978723 -1.4908917
