10

N 0.25133520 -0.00837952 1.85937898
C -0.96622270 0.27130451 1.38355558
O -1.04404570 0.25371077 0.04798306
C 0.07988253 -0.04554417 -0.78957781
C -0.37868275 0.03705588 -2.18130940
N -0.71994962 0.09805443 -3.28155688
H 0.34598835 -0.00179517 2.86398153
H 1.09286099 -0.22944786 1.33482541
H 0.88462915 0.68209291 -0.63902277
H 0.45420453 -1.05705185 -0.59825792
