10

N 0.806222 -0.15989566 1.6802647
C -0.37798426 0.14010549 1.3648509
O -0.79291505 0.20941536 0.08780174
C 0.2148792 -0.08657773 -0.87151945
C -0.38694477 0.04002531 -2.2026007
N -0.8147245 0.12760861 -3.2724533
H 0.91885185 -0.1575551 2.6914287
H -1.218444 0.38066927 2.022811
H 0.5960846 -1.1017586 -0.7284097
H 1.0549749 0.60796297 -0.7721741
