12

C -0.2591954 0.28993997 0.5554192
C 0.3038696 -0.98723936 1.1436567
N 0.5707587 1.0043768 -0.42600006
C -0.44864395 0.6409368 -1.413768
O -1.2811888 0.040745422 -0.42815462
H -0.46410006 -1.5193701 1.7128265
H -0.6247011 0.9572759 1.3455093
H 0.659877 -1.6505035 0.34704956
H 1.472216 0.5631066 -0.57860744
H 1.13612 -0.762721 1.8187848
H -0.14182515 -0.08158277 -2.183108
H -0.9231867 1.5050349 -1.8936082
