10

O 1.6986138 -0.7519393 -1.1951932
C 0.2097931 1.269914 0.0067144753
C 0.51236093 -0.66829485 -1.209834
O -0.1489664 0.60956395 -1.0912737
C -0.5548125 -0.5532671 1.1600082
O -0.041765656 0.72788376 1.1277459
H 0.67859674 2.2439961 -0.013782683
H -0.24021716 -1.4027743 -1.5260665
H -1.4449661 -0.6406804 0.5372184
H -0.6686368 -0.83440185 2.2044632
