12

N -0.67906976 0.79260665 1.7481489
C 0.8712709 -1.4052348 -0.38713682
C -0.14344591 0.18510309 0.60282034
N -0.92978764 0.11346944 -0.6784104
C 0.3063117 0.90513355 -0.6131375
N 0.5798426 -1.0624732 0.8098646
C 0.32841974 -0.39094937 -1.3369704
H 1.4257681 -2.3006346 -0.6446889
H 0.3815805 1.9428926 -0.91533387
H -1.276977 1.5753942 1.5166614
H 0.3188967 -0.47647905 -2.417394
H -1.1828102 0.121171415 2.3155768
