10

N 0.6023427 1.04683 0.31297007
C -1.2035557 0.04853674 -0.32753772
C -0.2743774 2.0621462 0.123461515
O -1.39479 1.4153512 -0.2641038
C 0.05953822 -0.21266256 0.044880144
N 0.7983925 -1.3763158 0.26481974
H 1.5336368 1.1986197 0.6693672
H 0.25465438 -2.211015 0.0882898
H 1.6561593 -1.4065095 -0.2724254
H -2.0320008 -0.56498086 -0.6397215
