10

N 1.1030992 0.9846885 -0.83747375
C -1.7185973 -0.363554 0.8418273
C 0.23154898 0.17326334 -0.12804064
O -0.91030174 -1.4538243 0.84314895
C 0.3067756 -1.1000391 0.31456316
N -1.025079 0.6599995 0.24810882
H 0.9565327 1.9651908 -0.6477775
H 2.0769398 0.72541654 -0.7688685
H 1.0931495 -1.8397367 0.3550847
H -2.1140678 0.24859555 -0.22057234
