10

N -0.15350995 -0.89730652 1.33157086
C -0.06055523 -0.08681810 0.19894741
C -0.88717884 0.77154710 -0.41929929
O -0.18826078 1.37365070 -1.44777437
C 1.07832065 0.91263284 -1.53208960
N 1.13771471 0.02361165 -0.51153471
H -1.05946067 -0.82670766 1.77632452
H 0.05917044 -1.86862416 1.14021523
H -1.91502980 1.05695684 -0.27014323
H 1.98878950 -0.45894260 -0.26621691
