11

O 1.09158241 0.67312771 -2.23864608
C 0.06246554 1.10241543 -1.79096872
C -0.50392905 0.63383941 -0.45281428
C 0.46388035 0.04149812 0.56713562
O 1.49629542 0.63417474 0.77622373
C 0.00645322 -1.18814439 1.29647567
O -1.68255449 0.76924069 -0.22296372
H -0.59900700 1.81045143 -2.32699419
H 0.72366228 -1.42940228 2.08178698
H -0.06869516 -2.02593275 0.59375557
H -0.99015349 -1.02126787 1.71700941
