11

O -1.0809202 1.3158176 -0.7567491
C 0.9391094 0.616402 -1.7790202
C -0.8046374 -0.8165987 1.3335303
C 0.29414952 -0.037299916 0.67129326
O 1.4046152 0.12409775 1.1203824
C -0.060850725 0.6810175 -0.6270965
O 1.750162 -0.26472375 -1.8769773
H -1.0760909 -1.6742948 0.70741326
H 0.7920786 1.4104804 -2.5366518
H -0.46213937 -1.1659098 2.308202
H -1.6954759 -0.18898825 1.4356734
