11

O 1.1988163 0.63456386 -1.9666404
C 0.1643433 0.6855848 -1.3555931
C 0.04322032 0.16474085 0.054828443
C 0.867286 -1.0034715 0.43943033
O 1.19811 0.2887269 0.87244004
C -1.2539092 0.3665086 0.7758567
O -2.2902944 0.60304576 0.20767654
H -0.7677282 1.099687 -1.7839375
H 0.4985863 -1.6858901 1.208318
H 1.518602 -1.4193773 -0.32777807
H -1.1770324 0.26588136 1.875399
