10

O 1.7060465 1.0773127 -1.6324272
C -0.09742581 -0.32448402 1.2948678
O 0.9157764 -0.8102356 -0.3216546
C 0.7904511 0.60113555 -1.0520248
C -0.5644879 0.640668 -0.6994716
C -0.5095267 -0.69688624 -0.061982207
H -1.3331436 1.3916966 -0.80446357
H -1.1153593 -1.5740571 -0.29633117
H 0.63859063 -0.91428757 1.8340021
H -0.4309211 0.6091375 1.7394853
