10

O -0.50014368 2.34170420 -1.67272826
C 1.14463937 -0.83309609 0.40222769
O 0.60560680 -0.92001826 -0.91010027
C -0.29005296 -0.64317645 0.15099340
C -0.93533722 0.70070270 0.13990855
C -0.69923605 1.56841471 -0.82489711
H 1.50747231 -1.77265564 0.81458026
H -0.96074435 -1.46847472 0.39081583
H -1.63381849 0.98213142 0.91824103
H 1.76161424 0.04446829 0.59095898
