11

N 1.91533 0.623431 -1.2088511
C 0.88895404 0.2668253 -0.5658037
C 0.05409599 1.1215202 0.30410245
C -0.93179506 0.38184398 0.797434
C -0.8044211 -1.0203744 0.2759036
O 0.35397765 -0.9922756 -0.5581386
H 2.302309 -0.16140738 -1.7313966
H 0.26831204 2.169308 0.4673782
H -1.7223672 0.69481105 1.4673879
H -1.6691192 -1.3284552 -0.32254437
H -0.6552762 -1.7552266 1.0745285
