11

N 0.9405827 -0.37869573 -1.8432424
C 0.34005022 0.012736511 1.6912688
C 0.17367415 -0.03533947 0.21179157
C -0.8702953 0.20228638 -0.6204917
C -0.31648585 -0.0329158 -1.9054425
O 1.2568728 -0.38188615 -0.5059679
H -1.8762585 0.4984889 -0.36241636
H 0.65197754 -0.9620506 2.077691
H 1.1014367 0.7474822 1.9716446
H -0.79546314 0.03924835 -2.873763
H -0.60609114 0.2906455 2.1589282
