11

N -2.3861933 0.10768184 0.9126869
C 0.5522063 -0.25030014 -0.7822703
C 1.7964913 0.067426026 -0.33387068
C -1.1020745 0.19761519 0.8149571
C -0.7234596 -0.3531461 -0.6409568
O -0.15336639 0.581391 1.5164969
H -1.4953156 -0.72190374 -1.3013616
H -2.635518 0.47445732 1.835379
H 2.409465 -0.68936986 0.15333879
H 1.5102408 -0.4523489 -1.6063225
H 2.2275245 1.0384974 -0.56807697
