10

O -0.41296977 0.15641806 -1.4877219
C -0.84492546 -0.22161809 -0.34077153
C -0.27787557 0.63488775 0.8008195
O 2.0040596 -0.79593587 -1.179318
C 1.1561244 -0.35327083 -0.5199649
O 1.101256 0.59217924 0.44735375
H 0.14325403 -1.1990714 -0.019333443
H -0.4308626 0.22942775 1.8046658
H -1.8201007 -0.71306837 -0.22956881
H -0.61795986 1.6700519 0.72383946
