10

O -0.12320129 -1.1849313 -1.082454
C -0.06698643 -0.48118365 0.115993865
C -1.3104702 0.37552372 0.3342612
O -1.482185 1.008937 1.346194
C 1.1411387 0.44225168 0.14313567
O 1.9223301 0.45098442 -0.7780736
H 0.6734993 -0.93113625 -1.578432
H 0.021110857 -1.1521755 0.98607785
H -2.0192194 0.3794717 -0.5165473
H 1.2439834 1.0922582 1.0298443
