10

O -0.124676 -1.1775973 -1.0828617
C -0.066150606 -0.47877914 0.11364803
C -1.3137728 0.37370396 0.33253312
O -1.4845597 1.0098433 1.3423495
C 1.1433927 0.44314772 0.14501351
O 1.9287895 0.44663566 -0.77004075
H 0.6756743 -0.9332518 -1.5760655
H 0.021885075 -1.1499238 0.9839649
H -2.0213346 0.37247366 -0.5198548
H 1.2407521 1.0937479 1.0313135
