11

C -0.5870428 -0.819686 0.09787704
C -0.09575965 0.5178625 0.3113547
O -1.3749955 0.19459061 -0.3435218
C 0.9693823 1.1001285 -0.5746653
C -0.3441046 -2.1662748 -0.4115873
N -0.94674486 -2.3045535 0.7327758
H -1.0879478 -1.2560394 1.2829274
H 1.9386215 1.0720984 -0.06671408
H 1.0391431 0.5351273 -1.5064343
H 0.7303612 2.1426625 -0.8079951
H -0.24091312 0.98408425 1.285983
