11

O 0.5197948 0.2182998 1.6353974
N -0.485478 -0.21262595 -1.5352374
C -0.006812819 1.1026267 0.6147707
C -0.09990671 -0.062969245 -0.31003463
O -0.9163987 0.6945984 -2.3012316
C 0.44980735 -0.93746084 0.77755773
H -0.22527374 -1.7051105 1.1769742
H -0.4305857 -1.168706 -1.917969
H 1.4399202 -1.377535 0.6021172
H -0.9547097 1.5627986 0.9172885
H 0.70964307 1.8860841 0.34036693
