11

O 0.16222830 -0.29510070 1.69675089
N -0.15620932 0.27003443 -1.59390485
C -0.54069263 -0.98760818 0.64655788
C -0.04723772 0.04251220 -0.32562136
O 0.37273363 1.22299623 -2.23232396
C 0.66417636 0.72218352 0.79441533
H -1.62330861 -1.01380859 0.82491199
H -0.73089060 -0.39761599 -2.13016042
H -0.16824779 -2.01110842 0.51054243
H 0.30780594 1.72349612 1.06303568
H 1.75964192 0.72401944 0.74579631
