11

O 0.6587885 0.40062696 2.3956606
N 0.7992539 -0.38621682 1.2663643
C 0.18255088 -0.14707184 0.18877082
C 0.09192281 -0.7549207 -1.17906
O -0.83476424 0.28151456 -1.5615581
C -0.7896177 0.90484107 -0.26004103
H 1.0125643 -0.732701 -1.7727144
H -0.39618298 1.9274343 -0.29468715
H -0.35554883 -1.7530094 -1.2251322
H 1.3905175 -0.6353759 2.191439
H -1.7594842 0.8948788 0.25095809
