9

O -1.48650709 -0.95794814 -0.61311414
C -0.24164057 -0.65867073 -0.07999847
C 0.79167558 1.22105310 0.14689379
O 0.36293552 0.82965517 1.45111033
C -0.33814732 -0.28797943 1.39502944
N 0.46144482 0.44236427 -0.77339335
H -1.36077286 -1.21441962 -1.53432586
H 0.45690011 -1.51935427 -0.10468095
H 1.35411181 2.14529977 0.11247938
