9

C -0.90814257 0.60326946 1.0812579
C 0.5268995 0.7629593 1.2036196
C 0.8594394 -0.58871055 -0.951661
C 0.9956866 0.09579463 0.22633336
O -1.4818888 0.22291474 0.017671065
H -0.5745225 -0.26427776 -0.61951286
H 1.1632884 -1.6318899 -1.0157537
H 0.99348384 -0.006082924 -1.8647783
H -1.5742437 0.80602294 1.9228239
