9

C 0.03573442 0.42594313 -1.64023717
C -0.12860872 -0.00963133 -0.40505806
C -0.29028322 -0.43293141 0.78122643
C -0.45638110 -0.86839769 2.01101374
O 0.97082524 1.31211932 -2.05308774
H 1.50837616 1.58037324 -1.29784198
H -0.58829642 0.09463098 -2.46273213
H 0.18164034 -0.51510464 2.81412457
H -1.23300665 -1.58700148 2.25259261
