11

N 0.29983093 -1.85532874 -0.66720502
C 1.00110197 0.11547207 0.65017930
O -0.83870120 0.26595186 -0.58495994
C 0.19844105 -0.55947637 -0.16856340
C -0.75416201 1.39349169 0.27689697
O 0.55766200 1.42190953 0.79507751
H 1.92435922 -0.15679603 1.13572366
H -0.58679228 -2.34541751 -0.61419522
H 0.61270794 -1.86266089 -1.63262701
H -0.94104488 2.30757096 -0.28981612
H -1.47340228 1.27528344 1.09948914
