11

C -1.1135734 -0.9853186 0.90782154
C -0.44920817 0.46327466 -1.1216812
N -1.0403603 0.10721299 1.5729839
C -0.052539304 -0.19156553 0.18236713
N 1.2502642 -0.6638873 0.3292757
H -1.3792689 1.0230396 -0.9987903
H 1.9752856 0.028216925 0.45837304
H 0.33077183 1.134955 -1.4929285
H 1.3366768 -1.4396238 0.97073317
H -0.6138807 -0.32495466 -1.8633488
H -0.24416795 0.84865075 1.0551943
