11

C -0.5232426 1.0405539 0.5442145
C -0.07701793 -0.049479503 -0.4314817
N 1.376321 -0.1426393 -0.4494755
C -0.72240734 -1.3474193 -0.10468028
N -1.1612324 -2.3819323 0.16339055
H -1.6104951 1.1614223 0.53391325
H -0.21838038 0.7922578 1.566712
H -0.052186735 1.9849539 0.2592292
H -0.40321732 0.2261056 -1.4404565
H 1.6801584 -0.8553442 -1.1058551
H 1.7117003 -0.4284791 0.4644898
