10

O 1.3170651 -0.9136989 0.48966166
C 0.40566027 0.13680437 0.36528847
C 0.006541528 0.4470425 -1.0781019
O -1.3908261 0.18239139 -0.7614574
C -1.0834954 -0.20763004 0.50630456
O -1.8051319 -0.6618626 1.3373342
H 1.330846 -1.1961839 1.4122219
H 0.6859249 1.0223447 0.9522071
H 0.38887358 -0.2797674 -1.797031
H 0.14454193 1.4705598 -1.4264272
