10

O 2.17336159 -1.30983195 -0.83248070
C 0.19450965 0.17605062 -0.56283624
C 1.23144086 -0.62984830 -0.70789534
O 0.01045742 1.19404955 -1.49455891
C -0.87572354 -0.11062996 0.45859794
O -0.42927053 -1.00653360 1.45662914
H 0.28945290 -0.58085092 1.93828873
H -1.21853115 0.84784537 0.87784241
H -1.73898077 -0.58967479 -0.01365246
H 0.36328349 2.00942389 -1.11993420
