10

C -0.046834357 -1.445876 -0.35422808
C 0.61407113 0.78723305 0.7124836
N -0.40720358 -0.8308418 -1.4209234
N -0.8913758 0.32667494 -0.6384843
C -0.38046426 -0.3464576 0.61985105
C 0.16403227 1.2972057 -0.439677
H -1.0946143 -0.5251012 1.4271274
H 1.335576 1.075673 1.4637196
H 0.3177837 -2.4623554 -0.26791325
H 0.3890291 2.123845 -1.1019557
