10

C -0.22303689 0.9734708 -0.36826193
C -0.62934154 -0.03966148 -1.235413
N -0.45591995 -1.3343887 -0.98937726
N 0.13252224 -1.711369 0.13808219
C 0.5405494 -0.78814393 1.004511
C 0.38933426 0.58395064 0.8032829
H -0.38741422 2.0178134 -0.6175236
H -1.1201884 0.18466568 -2.1797302
H 1.0118468 -1.1812383 1.9024101
H 0.74164814 1.2949008 1.54202
