12

C 1.02693095 0.25191082 1.39444832
C -0.98312429 0.67163217 -0.00851247
N 1.77288768 0.71920957 2.14074577
N 0.79816885 -0.74472324 -0.83356410
C 0.11731540 -0.32610158 0.38637471
O -1.81946911 0.07694952 -0.95774755
H -0.50910094 1.59130013 -0.38952573
H 1.42655953 -0.01430800 -1.15522634
H -0.36553904 -1.20976892 0.81807608
H -1.58908666 0.93958991 0.85936154
H -1.23225091 -0.38105863 -1.57655277
H 1.35670846 -1.57463177 -0.67787756
