12

C 0.38926065 -0.63689053 1.0939783
C -0.36269155 0.47894123 0.48074564
N -0.24054968 0.28439632 -1.4988794
N 0.73387325 2.4609373 -0.59355414
C 0.19413702 1.3830024 -0.52028996
O -0.38323128 -1.798174 1.2567903
H 0.6607033 -0.28123385 2.0985153
H -0.54505926 -2.1759653 0.38762906
H -1.3575207 0.65512604 0.8950312
H -0.9527713 0.59593743 -2.1480944
H 1.3279289 -0.8140558 0.5556982
H 0.5359205 -0.1520215 -2.0075698
