9

O -1.31260504 0.87703308 0.18856174
C 1.96729870 -0.14311337 1.12504478
C 0.83761366 -0.19899540 0.71185809
C -0.52352900 -0.30739044 0.22024620
C -0.93357245 0.30904466 -1.05038094
H -0.19838771 0.87737687 -1.61727418
H 2.96879069 -0.08146040 1.49005531
H -1.06747992 -1.18889331 0.55941903
H -1.73812926 -0.14360162 -1.62753014
