11

N 0.2918394 0.30593342 2.0008824
C 0.11311657 0.10424488 0.7629989
C -0.6347063 0.8448704 -0.3416594
N -0.42517292 0.08362111 -1.5739731
C 0.2943939 -0.9154447 -1.246294
N 0.6495874 -0.98893243 0.08877784
H -0.17590024 1.1594923 2.299471
H -1.7055837 0.9125749 -0.12098531
H -0.257938 1.8665973 -0.46219376
H 0.6293937 -1.6835696 -1.9366374
H 1.2209704 -1.6893874 0.529613
