11

C -0.97369516 -0.61473745 0.16170205
C 1.0680758 -1.2632201 -0.22995067
N -0.29764447 -1.6811385 0.0075018615
C -0.14624189 0.60539067 0.04446957
C -0.5119081 1.8785161 0.1455395
O 1.1157748 0.16552015 -0.19764829
H -2.041892 -0.617783 0.35690972
H 1.7244195 -1.6680772 0.54553044
H 0.20475112 2.6837068 0.03317253
H -1.5484097 2.1248899 0.34366012
H 1.4067701 -1.6130674 -1.2108868
