10

O -0.24105772 -0.17572749 2.026495
C -0.10778834 -0.0371706 0.6902733
C 0.7015642 -0.61570495 -0.2597933
C 0.2945298 0.011671821 -1.4647931
N -0.67090285 0.89101636 -1.2777864
N -0.90359485 0.8456761 0.053839363
H 0.39193383 -0.8336828 2.3370745
H 1.4632314 -1.3665878 -0.11052324
H 0.6794717 -0.15474573 -2.4617352
H -1.6073873 1.4352552 0.4669487
