10

N 0.44320515 0.1356424 -1.2364241
C -0.04393522 -1.5790154 0.075156
N -0.034913033 1.9094226 0.21076432
O 0.4245135 -1.2357547 -1.190415
C -0.0070759384 0.57207495 -0.093711436
C -0.4715855 -0.46792594 0.8421148
H 0.78726965 -1.4203924 0.87660927
H -0.038410537 2.5435708 -0.5754012
H -0.67619324 2.1508458 0.94858754
H -0.3828749 -2.6084683 0.14271982
