12

N 0.7909546 -0.39655057 0.51498234
C -0.33365837 -0.54271936 1.3346034
N -0.9731246 0.5501358 -0.4501437
C -1.520622 0.045845445 0.9744125
O -0.16453372 -1.2424563 2.4780455
C 0.40018436 0.26947877 -0.513627
N 1.1767659 0.7366675 -1.5570614
H -1.6670682 -0.3219367 -0.4561448
H 0.7726623 0.6207437 -2.475549
H -1.3761735 1.3794663 -0.86824334
H 0.7705203 -1.4826642 2.5207903
H 2.124093 0.3839897 -1.5020651
