12

O 0.40443778 1.171319 -2.1722481
C 0.75436115 1.2881318 -0.8161517
C 0.21072772 0.16955088 0.021109944
N -0.74876785 -0.6129033 -0.42937332
N -0.98076504 -1.418366 0.627788
C -0.1643842 -1.0907649 1.645301
N 0.60727966 -0.084291056 1.2999613
H -0.48659366 0.7990262 -2.2081556
H 0.40345973 2.2396483 -0.3866443
H 1.847412 1.2881609 -0.7508431
H -1.6767654 -2.1442327 0.57298756
H -0.17040168 -1.6052791 2.5962684
