12

O 1.2079796 0.9365454 -1.8511385
C -1.1804769 -0.7471858 1.480137
C 0.058307067 -0.3914893 -0.17104413
N -0.6699043 -1.3750066 0.44064784
N 0.01816735 0.7887658 0.4336078
C 0.8788364 -0.5932749 -1.3539711
N -0.79710776 0.53504616 1.4975417
H 0.37596452 -1.0646724 -2.1915073
H -1.8223251 -1.1857179 2.2324858
H 0.91829354 1.4836483 -1.0910316
H 2.0122297 0.3504554 -1.5889882
H -0.9999643 1.2628856 2.16326
