11

C -0.85378852 1.06682702 0.87498646
C -0.23954967 0.02595307 0.01182659
C 1.12983063 -0.51399050 0.35438047
O -0.23302179 1.26254912 -0.77799065
C -1.07926721 -0.94561605 -0.69773587
N -1.76360839 -1.73804366 -1.18163068
H -1.92996095 1.06556745 0.62481158
H 1.01459711 -1.35932071 1.03743711
H 0.59552973 1.72914708 -0.58365546
H 1.66253703 -0.85437969 -0.53895665
H 1.69670211 0.26130662 0.87652713
