11

C 0.5457815 -0.26367328 1.4714111
C 0.13457002 -0.095794156 0.07269857
C 1.182693 -0.19970845 -0.9707371
O -0.026561676 -1.4052836 -0.5154771
C -1.0449543 0.83081955 -0.10610141
N 0.8815126 -0.33328077 2.5737362
H 0.20749368 -1.1102184 -1.5272607
H -1.289692 0.8896666 -1.1695045
H -0.78495955 1.8312335 0.25024682
H -1.9098533 0.4652239 0.4545969
H 2.10397 -0.60898465 -0.53360885
