11

N -0.591154 0.04076065 -1.7545698
C -0.6271515 1.0283333 0.42606294
C 0.6887824 -0.07438979 1.9950491
N 1.1456007 -1.0353897 1.1870478
C -0.09640545 -0.014615619 -0.34665418
N -0.13792422 0.93086845 1.7138971
N 0.72116286 -1.0043052 -0.075625256
H -1.2006646 0.8768922 -1.713098
H -1.1254945 -0.7886718 -2.0164351
H 0.1611501 0.17789517 -2.4320033
H 1.0620985 -0.13737765 3.016329
