10

C 0.28074586 -0.43818763 -1.3847872
N 1.2528224 -0.73089105 -0.40642262
N -1.3783292 1.3454207 -1.3083344
C -0.05103251 0.06848332 1.3755019
N 1.158992 -0.50967884 0.80340374
N -0.6163708 0.5081434 -1.337085
H -0.10197347 1.1439494 1.1703019
H 0.004605978 -0.078304835 2.4555864
H -0.9591882 -0.4108517 0.98832995
H 0.40972793 -0.89808273 -2.3564942
