10

N 1.63307381 0.72439625 1.58107034
C -1.09902924 -0.64663034 -0.10702553
C -0.25945555 -0.72026062 1.10879855
C 0.82441679 0.22912657 0.74048314
C -0.25458430 -0.04830965 -1.22588394
O -0.41318697 -0.03791863 -2.40523516
O 0.84416768 0.52951800 -0.61612910
H -1.65052217 -1.54890559 -0.38423957
H -1.86042312 0.10571077 0.17943683
H 2.23554326 1.41327336 1.12872473
