10

N 2.0182023 -1.2042875 0.40989542
C 0.8855981 -0.67293745 0.20820276
C -0.7732531 0.37792224 -0.9106003
C -0.982712 0.5725381 0.5864537
C -0.07387099 -0.3524962 1.2983899
O -1.4397266 0.7011631 -1.8419759
O 0.41779605 -0.31134728 -1.0493487
H -2.0289228 0.58165264 0.90339625
H -0.56828034 1.5635146 0.8585023
H 2.545169 -1.2557224 -0.4629151
