11

N -0.45460933 1.1175046 -1.4128312
C 0.20692389 -0.6677534 1.536897
C -0.2872494 -0.9689279 -0.6714572
O 0.34801683 -0.81926996 2.7145803
C 0.013181237 0.41149652 -0.41552228
O -0.27913514 -1.5549257 0.65961474
N 0.49239373 0.5577958 0.83903056
H -0.96769243 -0.06550016 -1.6936625
H 0.5697197 1.4140775 1.3668233
H -0.1252872 2.042971 -1.6586858
H 0.48373818 -1.4674681 -1.2647871
