11

N 0.950457 1.1445777 1.1186643
C 0.11783303 0.32345968 0.3590831
C -1.2047825 0.12728496 0.31338647
O -1.511584 -0.7301045 -0.73610073
C -0.34884483 -1.09153 -1.3581536
O -0.27505055 -1.8069687 -2.3213298
N 0.662776 -0.47002903 -0.65377694
H 1.6151558 0.62024945 1.6759058
H 0.42543584 1.7634225 1.7212989
H -2.026897 0.4979834 0.90275747
H 1.5955013 -0.37834555 -1.0217351
