10

C 0.38703218 2.050849 1.5035154
C 0.18158993 1.0909529 0.8067542
C -0.05961074 -0.043003462 -0.019296514
C -1.2055508 -0.7197116 -0.3734117
N -0.8691175 -1.7408178 -1.2015013
N 0.413964 -1.7381951 -1.3822982
N 0.9132757 -0.7241979 -0.6793401
H 0.5601086 2.9057689 2.1230044
H -2.227788 -0.53148156 -0.086426735
H 1.9060965 -0.5501629 -0.6909994
