9

O -1.3212663 -0.66112787 0.8818244
C -0.59891444 0.2981699 0.15407452
C 0.86090857 0.19524904 0.33805323
C 2.044402 0.07834243 0.5101489
C -0.9294352 0.23093297 -1.2947541
N -1.2041159 0.14849305 -2.412336
H -1.0036912 -1.5384655 0.6319485
H -0.9458575 1.2675434 0.52701855
H 3.0979702 -0.019137444 0.6640223
