9

O 0.90907216 -0.6108361 1.3105729
C -0.03990919 -0.6263456 0.29107344
C 0.6426612 0.9730765 -1.7424027
C 0.31089655 0.25518927 -0.84046453
C -2.3912587 0.02805582 1.2261255
N -1.3419843 -0.26858866 0.7857239
H 0.9352866 1.6059083 -2.5527923
H -0.09200604 -1.6649039 -0.04491064
H 1.0672419 0.3084442 1.5670745
