10

N -0.15926698 -0.7498708 -0.8448336
C 1.0600114 -0.28827623 -0.41828957
C 0.83728224 0.5940124 0.6098363
C -0.57097477 0.6656056 0.8089424
C -1.1569524 -0.175204 -0.10375628
H -0.29907286 -1.4111565 -1.5893377
H 1.9767753 -0.62586385 -0.87978804
H 1.593022 1.1333059 1.1634034
H -1.0859059 1.2699226 1.5427291
H -2.194918 -0.41247517 -0.28890577
