10

N -1.03989 -0.8350603 0.06084357
C 0.7038501 0.53859615 -0.62589484
C -0.22914997 -0.5541945 1.1019163
C -0.47363544 -0.10004535 -1.0443896
C 0.8580344 0.23643318 0.72622746
H 1.6562498 0.5742912 1.3756462
H -1.5285295 0.2396866 -0.39214006
H -0.48186022 -0.9156898 2.090239
H 1.3556795 1.1391332 -1.2464306
H -0.8207485 -0.32315046 -2.0460172
