10

O 0.07194154 2.29889091 0.14221144
C 0.19817744 0.99738731 0.10100024
O 0.75403140 0.38505783 1.13147830
C 0.68288030 -0.79643102 0.22292304
C -0.69160280 -1.14166980 -0.10344744
C -0.01088566 0.02015736 -0.88867622
H 1.61367760 -1.34832381 0.14484738
H -1.45668816 -0.92954643 0.64099942
H -0.31678991 2.55989032 -0.70638497
H -0.84474180 -2.04541226 -0.68495122
