10

O 2.128919 0.8831482 0.16669177
C 1.147263 0.11846082 -0.06357067
O 0.9517952 -1.174277 0.18987173
C -0.36680198 -0.62926245 0.5737794
C -1.1343215 -0.19656947 -0.5928188
C -0.10182661 0.79396963 -0.09523326
H -0.9719091 -0.7285984 -1.5286467
H -2.1660528 0.08890163 -0.39711377
H 1.1612403 1.6723802 0.14528629
H -0.64830524 -0.8281533 1.6017538
