11

N -0.28312067 1.67629216 0.48792505
C 0.74236402 -0.64232227 -0.90785552
C 0.71621227 0.92937350 0.32143025
C -1.13009368 0.39529629 0.61467141
C 0.08681227 -0.51020368 0.46548864
O 1.42942692 0.66581870 -0.80990907
H -1.83816861 0.38936820 -0.22086875
H -1.65611534 0.31537263 1.57020903
H 0.06379858 -0.60434747 -1.76595047
H 1.47493569 -1.44331198 -1.02268901
H 0.39394855 -1.17133621 1.26754847
