11

O -1.1526449 -0.18108846 0.08317422
C 0.06923258 -0.53778976 -0.51703274
C -1.3420378 1.0372257 0.64042974
O -0.5743728 1.9552107 0.62676084
C 1.3155468 -0.27310172 0.2675822
N 0.06277381 -1.1461576 -1.6161284
H 2.1414766 -0.77370787 -0.23444736
H -0.8880227 -1.2675651 -1.964097
H 1.2089382 -0.66371334 1.2851963
H 1.5005497 0.80153424 0.33046338
H -2.3414397 1.0491533 1.0980988
