9

O 2.151539 -0.22588266 -1.383934
C -0.5193471 0.5063071 0.6662591
N 0.86281836 0.84189737 0.26035732
C 1.173875 -0.03657215 -0.7223608
C -0.97045565 -0.5037102 -0.16525593
O -0.018688532 -0.88424957 -0.96943045
H 0.36388817 0.069688514 1.3301387
H -1.9342107 -0.99179256 -0.23707275
H -1.1094189 1.2243145 1.2212989
