9

N -1.2406279 1.5615512 -0.66628015
C 0.76956946 -1.0618271 0.60924
N -0.09006266 -0.093618974 0.45031303
C -0.35347328 0.66110617 -0.69077545
O 0.68404454 -1.4690766 1.8150579
H -1.3019998 2.0104682 -1.5785257
H 1.4568679 -1.4900742 -0.119943164
H -0.18776572 -0.5144147 1.7394425
H 0.26344737 0.3958858 -1.5585287
