9

N 0.4021567 0.31899345 0.23645687
C -0.9632154 0.525153 0.012111321
N -1.5089856 1.6014979 0.4002997
C 0.9020574 -0.7804222 -0.14786871
O 2.191671 -1.0648152 0.0220758
H 0.38021198 -1.6041503 -0.6436042
H -1.5004045 -0.28785244 -0.5057431
H 2.5923378 -0.30168787 0.47017726
H -2.4958293 1.5932838 0.15609509
