11

O -0.76067454 -1.6378131 0.8636085
C 0.046407226 0.17464794 -0.08767253
N 1.1221505 -0.65395004 0.23338485
C 0.5764905 -1.684212 0.780606
C 0.25347993 1.4946142 -0.75303626
C -1.0923979 -0.43438593 0.30016443
H 0.87725735 2.1430316 -0.13140488
H 0.7649432 1.3631624 -1.71123
H 1.0581899 -2.568949 1.1758794
H -2.1442964 -0.19346675 0.26307923
H -0.7015497 1.9973203 -0.93337876
