10

N 0.50764287 0.7367981 0.73696727
C 0.6555126 0.1849549 -1.6467679
O -0.19962877 -0.66811293 -1.6838202
C -0.37987283 -0.068389274 1.0356059
C -1.2871411 -0.83097446 1.5793867
N 1.0271747 0.87637377 -0.5220443
H -1.0076456 -1.7951969 1.9851547
H -2.3235183 -0.5162577 1.599873
H 1.2470616 0.51422006 -2.5160532
H 1.7604147 1.5665846 -0.5683023
