10

N 0.8034001 -0.15963534 1.6823124
C -0.37849656 0.14137746 1.3643956
O -0.79292756 0.20893306 0.08647658
C 0.21574566 -0.087170176 -0.87211484
C -0.38567942 0.04066259 -2.203811
N -0.81559306 0.12660536 -3.2746687
H 0.9171421 -0.15698102 2.693159
H -1.2161546 0.38346013 2.0234082
H 0.5955446 -1.102956 -0.727047
H 1.0570189 0.6057039 -0.7721105
