10

O 0.025744801 0.32439494 2.0218046
C -0.024792241 0.119875416 0.688604
C 0.88974196 -0.2873079 -0.25616866
C 0.14343993 -0.2798653 -1.4596784
N -1.1095178 0.095258534 -1.2768222
N -1.1923643 0.3366039 0.0492527
H 0.91780597 0.13244195 2.3343852
H 1.9265416 -0.5477348 -0.10402757
H 0.48461932 -0.5373254 -2.4533625
H -2.0612192 0.6436587 0.4560129
