11

C 0.46036866 1.25684 0.068926014
C 0.5864913 -1.2813727 0.63493407
C -0.70604897 -0.42001337 -1.3634033
O -0.99135494 -0.56637573 0.96917653
C -0.07095775 -0.15128817 -0.06794903
N -1.1555091 -0.61190754 -2.4099963
H 0.32006562 -2.2292747 0.14607464
H 0.88323253 1.380751 1.0685083
H -0.23694046 -0.78803277 1.7138486
H 1.2490746 1.4240223 -0.6701777
H -0.33842152 1.9866517 -0.0899416
