11

N 0.015453909 -1.5801469 -0.115457386
C 0.09348111 0.8006864 0.39251512
O -0.4971872 -0.8447409 1.9796182
C -0.13421577 -0.62696284 0.839431
C -0.8462553 1.5041633 -0.51976126
O 0.8029607 0.86107165 -0.8938871
H 0.3468763 -1.3619977 -1.0380491
H -0.20491138 -2.5323167 0.12991293
H 0.58693737 1.3742392 1.1768918
H -1.4275144 0.6952181 -1.0074505
H 1.2643746 1.7107863 -0.94376373
