11

N -1.9953855 -0.51852536 -1.9166133
C -1.5757151 0.027843697 -0.9907024
C -1.0012462 0.6962121 0.19606897
O -0.31458247 -0.20692836 1.0260569
C 0.80473244 -0.8220594 0.43513343
C 1.855713 0.1559292 0.07815401
N 2.6578557 0.9409555 -0.19631104
H -1.8070855 1.1173527 0.7992801
H -0.3495805 1.5143033 -0.14188857
H 1.1970698 -1.5189528 1.1774775
H 0.528224 -1.3861306 -0.46665528
