11

N -1.03555052 -0.18653940 -1.40730800
C -0.77370462 -0.94640367 -0.28028884
C -1.14737877 0.47085112 -0.19861594
O 1.09849446 0.26994740 0.26220967
C 0.71773668 -1.09572195 0.03790366
C 0.10180788 1.29603146 0.16518113
N -1.50560816 -0.42965945 0.78246283
H -0.00248421 1.79985433 1.12908044
H 0.37772702 1.99383478 -0.62799722
H 0.89184068 -1.67541319 0.94671027
H 1.27711923 -1.49678145 -0.80933767
