9

N -0.81511724 0.8484297 -0.18615794
C 0.046043407 0.98185956 0.83701694
C 0.53031456 -0.97131133 0.13472962
N 0.8281844 -0.073994264 1.0855119
C -0.4661189 -0.462822 -0.70372784
H 0.10180561 1.9009302 1.4080043
H -1.1146272 -0.95051694 -1.4203844
H 1.0256481 -1.9323508 0.07401768
H -0.13613264 0.6597758 -1.2290103
