9

N 0.9927852 0.76626635 0.21012147
C -0.044282544 0.05436409 0.9371589
C 0.76995605 0.48517305 -1.0177407
N -0.3322594 -0.36957678 -1.303438
C -0.8203103 -0.631831 -0.14456943
H 1.374587 0.8610788 -1.8367264
H -0.6561294 0.7563905 1.5158978
H 0.40117717 -0.64844304 1.6509721
H -1.6855237 -1.2734219 -0.011676037
