10

O 1.2488774 1.23932 1.101794
C -1.5482652 -0.30200347 -0.12264281
C 1.1164492 -0.68700784 -0.33413923
N 0.041758925 -0.7369133 -1.2829101
N -0.6909479 0.7972878 -0.09810123
C 0.61779165 0.39398536 0.2908991
N -0.99560535 -1.3431802 -0.6497947
H 0.6322702 1.9709994 1.2574565
H 2.1162562 -1.063961 -0.48476848
H -2.5385852 -0.26852664 0.32220674
