10

O -0.9545463 1.8530228 0.99797845
C -0.29710597 1.1061449 0.025383936
C -0.13992554 -0.33630824 0.46489352
O -0.5648867 -0.7021127 1.5401453
C 0.53870386 -1.2344747 -0.45938736
C 1.1042343 -1.9474491 -1.246406
H -1.1501311 1.2380842 1.7236158
H 0.7057909 1.5071317 -0.18413903
H -0.8472952 1.1115732 -0.9281347
H 1.6051617 -2.5956128 -1.9339498
