10

O 2.13001359 -0.53393689 -0.38425362
C -1.77713467 1.11752091 -0.85923499
C -1.02550799 0.44563154 -0.20589616
O -0.12237027 -1.71964128 0.35085510
C -0.04643458 -0.34591840 0.56451420
C 1.33121468 0.18117187 0.16778396
H -0.19924420 -0.13958340 1.63509264
H 1.53535443 1.24355576 0.38962945
H -2.45803229 1.69959863 -1.44175543
H 0.63214125 -1.94839948 -0.21673503
