12

N 1.5569484 -1.9572614 0.07160238
C -0.94325054 1.7637477 0.5955957
N -0.4063924 -0.77677685 0.5152036
C -0.7357062 1.4695729 -0.6591699
C 0.8415722 -0.7842452 0.021347119
C -1.1964331 0.34328932 0.20265003
N 1.328426 0.37364665 -0.2677523
H -0.5060104 1.8228133 -1.6511769
H -2.2454855 0.03276962 0.21828228
H 0.9694453 -2.7749789 0.10821479
H 2.362373 -2.0158377 -0.529854
H -1.0254864 2.503261 1.3750571
