10

O -1.7767462 0.56908643 -0.40347782
C -0.9216213 -0.118259996 -1.3289299
C 1.3513365 -0.27930465 0.9999493
N 0.20826489 0.33069542 0.82795364
C -0.38558397 0.8054388 -0.33756897
H 1.8026439 -0.30587417 1.9852196
H -0.8837976 -1.1986603 -1.1716367
H -0.25813156 0.6843315 1.6610297
H -0.99778 0.19902538 -2.3668044
H 1.8614153 -0.6864785 0.13426538
