10

O -0.051351488 -1.1686147 1.6683134
C -0.38391334 0.8321689 -0.74978304
C -0.18762164 -1.3382732 0.46871084
C 0.3345183 -0.44736788 -0.5715332
N 0.72184277 1.0125618 0.18850902
H -1.3531011 0.93786615 -0.2648902
H -0.69744045 -2.2352972 0.07136652
H -0.28741404 1.3819025 -1.6846889
H 0.4527379 0.83705455 1.1575704
H 1.451743 0.18799911 -0.28357464
