13

C 0.87504387 -0.12466458 -0.061563913
C -0.28533143 0.4924453 0.49187016
O -1.3427229 -0.1958374 0.5766861
C -0.8227501 -1.6693352 -0.66258216
O 1.9597704 0.7275966 -0.347305
N -0.25607443 1.7847323 0.8773791
H 0.6454041 2.2090266 1.012685
H -1.0410844 -1.1657745 -1.5966358
H 0.031905573 -2.3371828 -0.7095976
H -1.0830573 2.2215254 1.2464651
H 1.785154 1.145932 -1.1973734
H -1.6785859 -2.1279352 -0.17849368
H 1.2123282 -0.9605286 0.54846644
