11

N -0.59989715 -0.17084339 -1.10150175
C 0.48635877 -0.92476622 -0.45761838
O -0.29380096 -1.13134969 0.73193995
C 0.52164181 1.00434703 0.52446293
C -0.75987222 0.17733798 0.33735844
O 1.41854536 0.07543708 -0.11811686
H -1.34452689 -0.82270438 -1.34128667
H 0.96675859 -1.80022892 -0.89393474
H 0.50826579 1.95898951 -0.00875039
H 0.81101791 1.13721435 1.56976042
H -1.71449094 0.49656723 0.75768702
