11

N -1.0268974 -0.15451871 -0.72386175
C 0.39485794 -0.430209 -0.9798773
O 1.0298454 0.7723821 -0.6121745
C -0.46339977 -0.29935482 0.6467709
C 0.4121626 0.96306294 0.6771382
O 0.4915904 -1.2761467 0.17831405
H -0.1619632 1.8935834 0.69581616
H 0.78267986 -0.82714134 -1.9177631
H -1.5587437 -0.9992821 -0.9248775
H 1.1747675 0.951047 1.4596524
H -1.0748994 -0.59342295 1.5008625
