11

N 1.2124089 0.66468316 -0.8717071
C 0.52170104 0.8063282 0.32236493
O 0.7259925 -1.2440517 -0.874134
C -1.2982587 -0.12316923 -0.08445903
C 0.029427618 -0.8576293 0.16608018
O -0.7861499 1.1981266 0.14616702
H 1.055459 1.2075058 1.1877136
H -1.6526512 -0.25625733 -1.1118351
H 0.0914814 -1.462483 1.0859292
H 2.1869953 0.40993434 -0.6079493
H -2.0864058 -0.34298727 0.64182967
