10

O 1.5493569 0.07690529 -0.93494165
C 0.53216696 0.29043737 -0.14737178
C 0.63626903 -0.019624349 1.3059896
N -0.29137108 -0.86829233 1.4784796
N -0.554117 1.0200425 -0.6219671
C -1.3242896 -0.036904123 -0.49758402
N -0.8258271 -1.1353468 0.15604074
H -2.3023117 -0.089700535 -0.97702986
H 1.3025844 0.35731956 -1.8316594
H 1.277539 0.40516332 2.0700438
