10

O 1.70517921 0.78051192 0.97170947
C -0.32536283 -0.29578571 -1.51173516
C 0.52780063 0.25012553 0.67460560
N 0.28881266 -0.77808630 -0.31530088
N -1.11703526 -0.77615625 0.18625734
C -0.72845881 0.26188223 1.13144723
N -1.54217547 -0.25748002 -1.11789239
H 0.12747230 -0.12892020 -2.48192830
H 2.39729473 0.24966250 0.55196740
H -1.33352747 0.69424629 1.91086984
