10

O -0.7193064 0.71328354 1.8533427
C 0.6590786 0.71736056 -1.2368115
C -0.33879638 -0.030611264 0.82492965
N 0.29756862 -0.33461607 -1.8691628
N 0.87384784 0.14687188 0.05535614
C -0.7003924 -1.1600152 0.20790021
N 0.48256305 -1.1141349 -0.64087
H -1.4380066 -1.9436203 0.257243
H 0.8613164 1.7286618 -1.5692993
H 0.022127215 1.27682 2.1173716
