10

O 0.21548961 1.31833 -0.7976494
C 0.032600444 1.0446326 0.61739236
C 0.20626684 0.28832656 -1.6117446
C -0.12967652 -0.46247846 0.68641967
O -0.31603026 -1.113075 1.6806754
C -0.005232903 -0.9371398 -0.7521823
H -0.89614624 -1.4861732 -1.0786464
H 0.83266383 -1.6347772 -0.8765756
H -0.8514076 1.5820127 0.9694746
H 0.9114728 1.4003415 1.1628366
