10

O 1.4332634 -1.4935722 -0.5983934
C -0.7705436 -0.7625316 0.34621185
C 0.65039885 0.8408056 -0.34750223
C 0.60028195 -0.67356104 -0.3380902
O -0.6457158 1.2235768 -0.7358026
C -0.90478224 0.7640943 0.5783192
H -1.5717919 -1.0742213 -0.32755035
H 0.52240896 1.0488862 0.8629207
H -0.7517597 -1.3866651 1.2404015
H 1.4382399 1.5131885 -0.6805146
