10

C 0.67363906 -0.065041676 -0.41970885
O 0.9013372 -0.027312705 0.8623663
C -0.21018323 0.30782363 1.7355659
O -0.17937917 -1.5387474 -2.4288392
C 0.14022733 -0.44142893 -2.0966337
O -0.5116983 0.23483177 -0.83747774
H -1.0505495 -0.36288407 1.5469855
H 0.17689349 0.1753529 2.74453
H 0.5735812 0.37255883 -2.6807625
H -0.5138681 1.3448476 1.5739744
