10

C -1.1549662 0.00801333 -0.29609585
O -0.23194572 0.37827525 0.65043336
C 0.9247639 -0.7827801 -1.2628953
O -0.12443704 1.3838167 2.646539
C -0.79299957 1.0078 1.7364666
O -0.51260406 -0.57351834 -1.2648363
H 1.212528 -1.398963 -0.4085941
H 1.1205182 -1.2986616 -2.200963
H 1.444481 0.1780887 -1.2273896
H -1.8853385 1.0979288 1.6273357
