10

N -0.53335688 1.00935709 -0.08899825
C -0.86888026 2.18470817 -0.24735078
C 0.90788971 -0.65797414 -0.94999557
O 1.46788540 -1.72822603 -0.83751048
C 0.02340460 -0.13266428 0.09326706
N -0.22029772 -0.92830933 1.20033816
H 1.03013646 0.00058594 -1.83460832
H -1.86338601 2.31631037 -0.69484964
H 0.49652692 -1.63270235 1.30955598
H -0.43992232 -0.43108537 2.05015168
