11

N 1.4680935 0.82870674 1.0878593
C -1.4534107 -0.6585206 0.11715987
C 0.43412197 0.21176599 -0.8274185
C -0.9681043 -0.21578531 -1.050376
C 0.5262554 0.06866742 0.60087436
O -0.5142169 -0.5217075 1.1716388
H 1.3834982 1.2083223 -0.18740308
H -1.5074236 -0.25598344 -1.987946
H 1.1931064 -0.3420669 -1.381294
H 1.8347285 0.75434935 2.029409
H -2.3966482 -1.0777481 0.42749637
