12

N 0.24181451 0.737743 -1.3801937
C -1.1231512 -1.0535878 1.1586574
C 0.90269417 -0.89504117 0.5180269
N -1.2170354 0.013294804 0.45379844
C 0.13972546 0.24838966 0.023457898
N 0.14997704 -1.6556171 1.25039
C 0.7217398 1.6222994 -0.20897634
H -0.6664651 0.8685546 -1.8151197
H 0.9467041 0.32267824 -1.9752792
H 1.9677294 -1.0494018 0.37864065
H -1.9644995 -1.5025895 1.6754452
H -0.09923336 2.3432775 -0.07884743
