12

N -0.09903852 -1.61889377 1.30246324
C -1.07375015 -0.61350293 1.47806545
C 0.21611837 0.18463489 -0.03120454
N -0.98147915 0.42768468 0.73557416
C 1.14546880 1.27563642 -0.50703831
N 0.11210070 0.62364058 -1.45126827
C 0.65023758 -1.15707787 0.35024166
H -1.85404119 -0.75001736 2.21904374
H 0.67746052 2.23423129 -0.23721612
H -0.77870566 1.06453805 -1.65939707
H 0.45818157 -0.00282749 -2.16613933
H 1.52744734 -1.66804655 -0.03312477
