12

N -0.45423687 -0.4524604 1.91616
C -0.1405669 -0.13574763 0.5986421
C -0.9279028 0.72078264 -0.17536317
N -0.5981012 1.0827549 -1.4130627
C 0.5393594 0.58032906 -1.8933803
N 1.3655969 -0.24519067 -1.2568134
C 1.0221972 -0.5980604 -0.022631522
H -1.4301451 -0.38007012 2.161118
H -0.03744991 -1.3027765 2.2657464
H -1.8552011 1.129928 0.22329354
H 0.8177634 0.87388825 -2.9026892
H 1.6986872 -1.2733772 0.49898008
