9

N 0.5057997 0.60408944 -0.5193036
C -0.077471405 -0.74502355 -0.65128416
C -0.8815444 0.26672313 0.070388354
C -0.784321 0.23145089 1.4940003
N -0.7651993 0.24523403 2.6567988
H 0.51063675 1.2288861 -1.3150119
H 1.3265979 0.67960495 0.07566253
H 0.5260193 -1.4988347 -0.1435195
H -0.36051756 -1.0121303 -1.6677308
