9

N -2.1958604 0.30818588 -1.4316409
C -1.2764598 0.4513128 -0.7474353
C -0.10202425 0.62353283 0.08840615
C 0.47124046 -0.5778722 0.7541166
N 1.17412 0.056642238 -0.34556413
H -0.031868804 1.5928674 0.57303673
H 0.92935795 -0.456729 1.7315063
H -0.026257742 -1.5284927 0.5851002
H 1.0577526 -0.46944726 -1.2075258
