11

N -0.81499404 0.4406658 0.08539506
C 0.2654169 1.1823592 0.13869023
N -1.0782222 -1.9386214 -0.032983553
N 1.3762306 0.44317853 0.0881366
C -0.27652654 -0.8170064 -0.0030473599
N 1.0362045 -0.88523245 -0.013775408
O 0.33486986 2.5115643 0.2294534
H 2.3391852 0.73553777 0.105944626
H -0.61789954 -2.7482018 -0.42346397
H -0.5764856 2.8377774 0.2585816
H -1.987779 -1.7620207 -0.43293127
