15

N 0.45416331 -1.01218884 1.56455196
C -0.38980824 -0.11446341 0.81678678
O -1.47185633 0.14814400 1.64200251
N -0.77606473 -0.70352935 -0.45225815
C 0.84444482 0.96336099 -0.78232280
C -0.15923872 0.07903631 -1.52970479
O 0.23729956 1.11970075 0.49187509
H 0.34535663 -0.83371358 2.55770787
H -0.51408260 -1.68102929 -0.45879281
H 0.31545209 -0.56164996 -2.28091165
H 1.82597578 0.47013913 -0.68960495
H 1.42751397 -0.87368273 1.31144492
H -0.91389461 0.69568684 -2.03191521
H 0.98810946 1.95439304 -1.22001943
H -2.21337063 0.34979581 1.06116037
