15

N -0.35934392 1.0180299 -0.2741581
C 0.88718164 0.49403775 -0.42087686
O 1.7098693 0.4204342 0.618861
N 1.4572825 0.5323159 -1.6452142
C -1.0950652 0.43265784 0.84972024
C -0.9491994 -1.1068008 0.68918777
O 0.34733698 -1.3838373 0.31657508
H -1.234367 -1.5855649 1.6390291
H 2.3727076 0.107289515 -1.6794744
H -0.9010885 1.043261 -1.1281989
H -2.1288896 0.79147726 0.82707894
H 1.3225999 -0.48295125 0.95333636
H -1.6766512 -1.4466603 -0.07333436
H -0.62171775 0.7726576 1.7761654
H 0.8693448 0.39365348 -2.448697
