11

O 1.2115821 1.5083551 0.28005585
C 0.84264535 0.20100814 -0.057295002
C 0.51624393 -0.74423826 1.0905651
O -0.9334752 -1.1984252 0.026771193
C -0.5286843 -0.018052105 -0.62731236
N -1.2303606 0.7146598 -1.3611733
H 1.0809683 -1.6779892 1.0740427
H 1.606036 -0.16855875 -0.7528512
H -0.88889986 -0.8439657 1.0840297
H -2.1564233 0.32861322 -1.5286663
H 0.48036766 1.898593 0.77183354
