11

O 0.89577456 -0.29570569 1.63195759
C 0.75024458 -0.06017157 0.26800238
C 0.13791461 1.26148254 -0.24644551
O -0.80424692 0.50619483 -1.06067021
C -0.41600429 -0.67645361 -0.47473650
N -0.92786727 -1.82050069 -0.49723403
H 0.76744367 1.90685551 -0.86221627
H 1.70825943 -0.28611214 -0.21062688
H 0.03593146 -0.52914775 2.00159531
H -0.38150073 1.83484882 0.52705386
H -1.76594927 -1.84129016 -1.07668010
