11

C 0.50426686 0.29843175 1.0141788
O -1.9187262 0.18278818 -0.1553539
C 0.31376055 -0.7205958 -0.89389586
C -0.6643944 0.3910631 -0.48710856
O 1.291361 -0.4437352 0.102068126
H 0.26788265 -0.28643706 1.9193294
H 0.94881505 1.2606947 1.2828559
H 0.7282772 -0.6364347 -1.9043134
H -0.36760125 1.3793073 -0.88151526
H -0.16047476 -1.6995096 -0.75218016
H -0.94316673 0.27442738 0.75593525
