11

C -1.3066902 0.10201472 -0.78392726
O 0.06898695 -0.019781133 -1.0848718
C 0.81710917 -0.5300883 -0.016603457
C 1.021158 0.49508497 1.0853255
O 1.2829103 0.20668487 2.2255993
H -1.7503226 -0.87406933 -0.5390384
H -1.4831347 0.79047936 0.0562119
H -1.7926753 0.50228125 -1.6745661
H 1.8077778 -0.77500874 -0.4187478
H 0.38502878 -1.4473255 0.40965304
H 0.9498516 1.5497277 0.7409653
