11

C -1.13423059 -0.21054088 -0.01923154
O -0.61311320 -0.28878285 -1.35352592
C 0.72996859 -0.09185229 -0.88750886
C 0.28398220 -0.24790662 0.57630199
O 0.66779338 0.70206241 1.52704267
H -1.80824815 -1.04346616 0.21186387
H -1.65825063 0.73983850 0.16645742
H 1.10746310 0.91570944 -1.12267188
H 1.42224155 -0.83880360 -1.29118771
H 0.54478862 -1.21833982 1.00389584
H 0.45760492 1.58208174 1.18856433
