11

N -0.8758597 0.9908759 -1.3417324
C -0.28034836 0.24110459 -0.31052986
C 1.0160441 0.303418 0.15530115
N 1.0787357 -0.5574886 1.2101532
N -0.07764029 -1.1753495 1.4541177
C -0.9103537 -0.69858605 0.54086107
H -1.5608202 0.4558585 -1.85819
H -0.19500606 1.3622848 -1.988484
H 1.8702656 0.8771463 -0.17040661
H 1.8727973 -0.7619768 1.7922544
H -1.9378146 -1.0372872 0.5166552
