11

N 0.8137352 1.134164 1.0153041
C 0.89097893 -0.780519 -0.5416513
C -1.2163494 0.27272344 0.04731034
N 0.36746812 -1.6518451 -1.3046579
N -2.4191365 0.4370396 -0.08943161
C 0.098163195 0.23832572 0.16435717
H 1.0896759 -2.2416592 -1.710307
H 1.9649785 -0.69411296 -0.3277236
H 0.23143952 1.5049175 1.7539747
H -3.0178437 -0.12992609 0.50977314
H 1.1968901 1.910892 0.48305216
