10

O -0.41253412 -1.3270077 0.04639561
C -0.12566991 -0.0229039 0.6185424
C -1.0512089 0.14470741 -0.5190951
O -0.5601736 0.028579406 -1.7061962
C 1.2919378 0.47205758 0.49234173
O 1.7861618 1.1769258 1.336021
H -0.5159957 0.06311395 1.6318239
H -2.1134424 0.32383668 -0.33935103
H -0.13043052 -1.025739 -1.1334192
H 1.8313557 0.16642958 -0.42706305
