10

O -0.12578803 -1.18170350 -1.08295835
C -0.06553546 -0.47939206 0.11271234
C -1.30852209 0.37617642 0.33408419
O -1.48520272 0.99828595 1.35050436
C 1.14205259 0.44303150 0.14524615
O 1.93392343 0.44515857 -0.76686031
H 0.66857199 -0.93125638 -1.58481079
H 0.02304520 -1.15272592 0.98171298
H -2.01543659 0.38513374 -0.51898877
H 1.23289166 1.09729188 1.02935793
