10

O -0.12495433 -1.1805693 -1.0835396
C -0.0666025 -0.4794897 0.113340825
C -1.3115405 0.37536952 0.33314854
O -1.4850796 1.0054817 1.3448358
C 1.1427255 0.44102705 0.1458931
O 1.9268461 0.45153913 -0.7719301
H 0.6732342 -0.9293536 -1.5791129
H 0.023496395 -1.1526277 0.98150206
H -2.0208714 0.3805223 -0.5185246
H 1.2427461 1.0881008 1.0343866
