11

N -0.4309327 -0.77798957 -0.8084729
C -0.6491922 -1.0173547 0.4889316
C 0.37213975 0.9831621 0.91471654
O 1.0794239 0.8950007 -0.29206422
C 0.3464715 0.24021658 -1.2475215
O 0.09237653 -0.30379063 1.3995581
H -1.123317 -1.9121358 0.8643763
H 0.81886536 0.2062066 -2.2176466
H 1.0194019 1.4774882 1.6358519
H -0.9499074 -1.3153098 -1.4889915
H -0.5753297 1.5245067 0.7512623
