10

N -2.23744625 0.34851238 0.05279454
C 1.14121552 -0.03659620 -0.72409035
C 1.24291127 0.31536843 0.66869021
C -1.14484384 -0.15594245 0.15120516
C 0.09101447 -0.69762759 0.25203402
H 0.75689889 0.61565083 -1.51300276
H -2.62572097 0.88890631 0.81887296
H 0.82312663 1.30990433 0.87178311
H 0.18684357 -1.74142581 0.53151356
H 1.76600061 -0.84675031 -1.10980016
