11

C -0.83933294 -0.14154924 -0.71261305
C 0.4054958 -0.92718095 -0.29191136
O 0.6586868 -0.42836747 1.0092038
C 0.3498912 0.93620014 0.92182606
O -0.7408512 1.066095 0.030429868
H -1.7620375 -0.66407776 -0.43574953
H -0.8599912 0.079233214 -1.785553
H 0.25244975 -2.006412 -0.2304735
H 1.2549695 -0.7161243 -0.95848
H 0.067719065 1.2969654 1.9149791
H 1.2130007 1.5052183 0.5383414
