11

C 0.7042461 -0.07173283 0.10331808
C -0.4419557 -0.29986396 1.067852
O -1.6722381 -0.31921992 0.38623995
C 0.52495897 0.74512243 -1.0931681
O 0.5045738 -0.6843602 -1.1656145
H -0.48041204 0.5094869 1.8025979
H -1.5324986 -0.8727108 -0.39472187
H 1.7076132 -0.19553035 0.51399124
H 1.3887908 1.2112402 -1.5639822
H -0.26398915 -1.2425351 1.6090597
H -0.4390893 1.2201039 -1.2655722
