12

O -0.35914417 -1.71283113 0.69291418
C -0.79883903 -0.40397946 0.93108709
C -0.77968809 0.50282416 -0.29332050
O 1.67983395 -0.64474774 -0.83028137
C 1.55758423 0.55875172 -0.79078804
O 0.45510470 1.23423385 -0.48527615
H -1.84149161 -0.47648303 1.26142586
H 0.46421104 -1.64493157 0.17843972
H -0.23436946 0.09564343 1.73682361
H 2.36271625 1.26888029 -1.01708930
H -1.51227410 1.30633919 -0.19213458
H -0.99364403 -0.08370002 -1.19180089
