11

O -2.3251326 0.2679658 -0.31047592
C 1.1907296 0.3103434 0.8053451
C -0.0484102 0.5393099 0.13870688
C -1.4330585 0.54339194 0.4834834
N 1.929134 -0.5125204 0.100960016
C 0.8142713 -0.84392214 -0.7000359
N 0.23995376 0.14408658 -1.3712205
H -0.665909 -0.12733735 -1.7547176
H 0.43595314 -1.8695867 -0.6827694
H -1.6443471 0.82182515 1.5320846
H 1.5068154 0.7264437 1.7586393
