11

N 0.16248007 1.53392816 -0.93806242
C -0.46276403 0.37142887 -0.34937691
C 0.31721975 -0.89541689 -0.14875348
C 0.15929936 -1.21584588 1.13217020
N -0.96059774 0.68326884 1.00882383
N -0.63846395 -0.22602275 1.80604748
H 0.85107950 -1.44024573 -0.91680823
H 0.37752237 1.35806212 -1.91274033
H 1.03627676 1.73616617 -0.46345584
H 0.53101814 -2.05407595 1.70680719
H -1.37307062 0.14875295 -0.92465120
