11

N 0.34611413 1.6506511 0.64409035
C 0.15834959 -0.41720396 -0.8517005
C 0.034692764 -1.635165 -0.33241352
C -0.41861847 0.519859 0.16934969
N -0.77005166 -0.37613654 1.2933953
N -0.54742604 -1.5675308 0.98168314
H 0.4659866 2.3277004 -0.10049269
H -1.388458 0.8936789 -0.18961148
H 1.2701423 1.3479078 0.9342467
H 0.30309135 -2.6068442 -0.7258775
H 0.54617745 -0.13691702 -1.8226699
