10

N -0.30464607 -0.15892325 1.3656406
C 0.34852275 0.86445296 0.94656014
C 0.012915102 -0.24219331 -0.98149186
C 0.57995707 0.8759661 -0.505407
C -0.58450073 -0.9684346 0.18735082
H -1.6687123 -1.1050563 0.08947109
H 0.687376 1.6386029 1.631238
H -0.022537459 -0.58294284 -2.0089142
H 1.1086951 1.6476246 -1.051361
H -0.15706939 -1.9690961 0.32691368
