10

N -1.07274019 0.61216744 0.67640190
C -0.92784586 -0.67354184 0.00711024
C 0.47587485 -0.72504684 -0.51961617
C 1.07002950 0.42745190 -0.17727018
C 0.06085246 1.20414639 0.55771985
H -1.67971284 -0.75628049 -0.78762935
H -1.14141973 -1.47846175 0.72124533
H 0.90280234 -1.55390190 -1.07070236
H 2.08354746 0.74930734 -0.38288372
H 0.22861180 2.19415951 0.97562445
