12

O -0.79481322 0.18310321 -1.58270363
C -0.12277935 -0.25623747 0.72429462
C 1.37304556 -0.16406604 0.50371634
O 1.92909185 0.91046478 0.39444738
C -0.75148606 -1.07261827 -0.39340164
O -0.64879064 1.06341169 0.84775368
H 0.10386184 1.63441184 1.07501717
H -0.58696322 0.98247498 -1.07821454
H -0.27715497 -0.23431851 -2.26318397
H 1.90314106 -1.12207159 0.38001970
H -0.28814042 -0.85951206 1.63025637
H -1.83901254 -1.06504234 -0.23800142
