12

O 2.1337678 0.35919026 0.15474977
C 1.2843554 -0.38078085 0.609376
C -0.15355362 0.071504235 0.7593705
O -0.24530078 1.4400645 0.3694613
C -1.0632325 -0.8595783 -0.025845593
O -0.7900094 -0.16583556 -1.5870064
H 0.6570131 1.7969661 0.42071095
H -0.32053798 0.6576855 -1.3917739
H -0.44284585 -0.08498289 1.8100241
H 1.4899831 -1.4315633 0.86947256
H -0.4633948 -0.9359503 -2.0403392
H -2.0862446 -0.46671972 0.05180006
