12

O 0.50884116 -0.3852575 -1.736026
C 0.872672 -1.0171608 -0.12191247
C 0.04828784 1.2133077 0.7620681
O -1.4532223 -0.50561816 0.10018974
C -0.18348725 -0.29090446 0.6761424
O -0.78738064 2.0069144 0.39253733
H -0.46127427 -0.25446543 -1.6435964
H 0.6141749 -1.3930739 -1.5322284
H -1.9256992 0.34233844 0.18070781
H -0.116263986 -0.692357 1.7034369
H 1.0265492 1.5367262 1.1618181
H 1.8568019 -0.56044966 0.056862988
