10

N 0.38687307 -0.0933484 -0.8640963
C -0.65667826 0.41806102 -1.5595835
O -1.7236072 0.85328674 -1.100642
N 1.2594427 -0.62126374 1.1949843
C 0.25635603 -0.1336252 0.4495314
O -0.78007936 0.27322188 1.1474797
H 1.1350822 -0.73877007 2.1858394
H -0.503046 0.4354107 -2.6489558
H -1.4309101 0.6221091 0.46857348
H 2.056567 -1.0150821 0.72686946
