10

N 1.4791099 0.5014527 0.91774666
C 0.22406608 0.6234759 0.37603137
O -0.44655085 1.6312145 0.44136927
N -0.23197123 -0.54731196 -0.23116815
C -1.4600239 -0.6416903 -0.8689297
O -1.8548306 -1.6728745 -1.3530462
H 1.8792554 1.3753349 1.2239665
H 2.1283226 -0.16923909 0.5374588
H 0.29131103 -1.4098048 -0.16459611
H -2.0086882 0.30944246 -0.87883234
