10

C 0.3598338 -0.47867212 -0.14639221
C -0.32770637 0.10730061 -1.3545985
O 0.23646276 0.4752894 -2.3559842
C -0.0034193513 0.28452042 1.1286569
H 0.020115968 -1.5201565 -0.060476117
H -1.4333564 0.18355535 -1.2595668
H 0.3630461 1.3159069 1.0942743
H 1.4387945 -0.48851964 -0.32655615
H -1.0896357 0.31875724 1.2736185
H 0.43586454 -0.19798164 2.0070243
