10

C 0.7687299 -0.41834804 -0.9820398
C 0.20058614 0.6661153 -0.25595483
O 0.79664296 1.6887246 0.1797961
C -0.6242686 -0.17108984 0.91459864
H -1.1492171 0.64024824 1.4181178
H -1.3222389 -0.91720074 0.53727937
H 0.10674038 -0.6097795 1.5947996
H -0.75252306 0.82089186 -0.87504715
H 1.8358874 -0.4699331 -1.192083
H 0.13966095 -1.2296289 -1.3394668
