10

C -0.13881452 0.49054666 -1.30151313
C 0.30440000 -0.48125923 -0.23615301
O 0.59124847 0.99365782 -2.12027016
C -0.10339899 -0.00542621 1.15935724
H -1.22596309 0.72521395 -1.28288377
H -0.18621283 -1.43976500 -0.45534525
H -1.18355171 0.17358950 1.21658877
H 0.15139821 -0.75572299 1.91397037
H 1.38521692 -0.62711615 -0.32143344
H 0.40567768 0.92628169 1.42768260
