12

C 0.14969814 1.5606389 0.39199707
C 0.117412224 -1.2830373 -0.83706963
N 1.0887623 1.0610788 1.0819131
C -0.8373774 -0.5659559 0.10203299
O -0.8523016 0.8467974 -0.13599397
H -1.8705657 -0.8737982 -0.07478823
H -0.5755617 -0.75058043 1.14853
H 1.1488429 -0.9846695 -0.6316369
H 0.0037519333 2.6158118 0.1383007
H -0.12586546 -1.0580075 -1.8803221
H 0.031313367 -2.3643866 -0.68776363
H 1.721891 1.7961085 1.3848003
