12

C -0.34979573 -1.1039236 0.9794575
C -0.25895658 -0.62872905 -0.46931747
N -0.26631835 0.81947654 -0.5859369
C 0.87689745 1.5513054 -0.49344665
O 1.9925525 1.0795884 -0.40554598
H -0.34696573 -2.1969688 1.0261688
H -1.2704875 -0.74471027 1.4549731
H 0.507165 -0.7285688 1.5475937
H -1.0924135 -1.01986 -1.0602611
H 0.67297953 -0.98057115 -0.9255765
H -1.1465099 1.3132784 -0.5402963
H 0.68185294 2.639683 -0.5278123
