12

C -1.01180885 -0.02301844 0.08735388
C -0.55156402 -1.33234187 -0.53037545
N 1.45758436 0.60612740 0.99492965
C 0.93459963 1.31574349 0.08371184
O -0.28026639 1.09355598 -0.43308694
H -1.19383720 -2.14643529 -0.17858196
H -0.90942919 -0.04247517 1.17681683
H 2.37442453 0.97378601 1.23387005
H -0.61709406 -1.28791275 -1.62213093
H 0.47856434 -1.55030781 -0.23643396
H -2.04904981 0.19521930 -0.17724803
H 1.36787678 2.19805921 -0.39882508
