12

N -0.96908324 -0.09706168 -2.01682073
C -0.27769355 -0.01195485 -0.80540236
C 1.04925908 0.21031376 -0.57856942
N -0.98016231 -0.09782573 0.38195060
C -0.07447114 0.07563059 1.30461321
O -0.27401930 0.07049509 2.63261434
N 1.16283293 0.26733868 0.82054062
H -0.44192968 -0.54866677 -2.75070142
H -1.86527043 -0.54565630 -1.88539104
H 1.99675020 0.39927795 1.36583599
H -1.22144828 -0.07654553 2.76286373
H 1.89523541 0.35465464 -1.23153348
