12

N -0.2734999 -0.011686934 -2.050287
C -0.15884764 -0.038664732 -0.6535519
C -1.0324557 -0.31297594 0.3342681
N -0.3540028 -0.10010904 1.5482556
C 0.9331452 0.33404884 1.3292975
O 1.7720968 0.6601104 2.1460402
N 1.0509771 0.31706136 -0.055169687
H 0.286736 -0.72907233 -2.4977672
H -1.2366879 -0.1194761 -2.3376133
H -2.049975 -0.6684167 0.29500163
H -0.75819236 -0.09361336 2.467546
H 1.8207059 0.7627944 -0.5260199
