10

C -1.1489626 2.2113454 0.4928134
C 0.08629594 -1.0868751 0.5694282
C -0.55668217 1.2253374 0.14070903
C 0.169042 0.05715229 -0.32127374
N 0.7110643 -2.178694 0.22730985
N 1.2579991 -3.1168447 -0.08598204
N 0.8334586 0.0026041328 -1.4144013
H 0.7796536 0.8954489 -1.9050215
H -0.45868915 -1.1027287 1.5003096
H -1.6731795 3.093254 0.79610854
