10

C -0.58694875 0.45740258 2.42884806
C -0.17509076 0.27223030 1.31391775
C 0.36188966 0.06161275 -0.01726683
C -0.62509779 -0.34934801 -1.00010077
N 1.59245298 0.21704888 -0.33492435
N 0.14063280 -0.73597385 -3.27768822
N -0.22453780 -0.55943476 -2.22274718
H -0.94301255 0.62585101 3.42353282
H 2.13381627 0.50469593 0.48052639
H -1.67410407 -0.49408482 -0.79409752
