10

C -0.9326225 0.37918648 2.3676116
C -0.47625372 0.21215041 1.2659104
C 0.06698533 0.009553785 -0.034144085
C 1.3392159 0.120423116 -0.55019283
N 1.3058842 -0.19902165 -1.8675568
N 0.089843884 -0.5017229 -2.2001495
N -0.6653731 -0.3802663 -1.1105897
H -1.3300277 0.52880454 3.3490639
H 2.2554283 0.40480354 -0.055564333
H -1.6530806 -0.573911 -1.1643885
