10

C -0.02401680 0.82377239 0.23102601
O -0.06260460 2.03214064 0.10919109
C 0.38974034 -0.08750688 -0.92392121
O 0.08334661 -1.45638969 -0.71664271
N -0.31985298 0.14705333 1.37313576
H -0.49018046 0.67309873 2.21594104
H -0.04339377 0.31611611 -1.84650280
H 1.47858947 -0.02860680 -1.01232084
H -0.86640678 -1.57553818 -0.84062872
H -0.14522090 -0.84413985 1.41072247
