12

O -0.5426043 0.61534226 -1.701636
C 0.18811601 1.17247 -0.63436383
C 0.36155987 0.1629297 0.48630166
C -0.7134839 -0.7877388 0.8360564
N 0.4215129 -1.223215 0.017451579
H -0.23305409 -0.3022866 -1.7635046
H -0.3621839 2.0493093 -0.2747984
H 1.1822265 1.5116054 -0.9642673
H 1.0463747 0.45720783 1.2790238
H -1.6582923 -0.7368427 0.3064874
H -0.7721785 -1.1434624 1.8630573
H 1.0820072 -1.7753193 0.5501919
