12

O 0.18038704 -1.577982 1.5339066
C -1.2440927 -0.28192356 -0.24632756
C 0.86873025 1.1516157 -0.70991486
C 0.19876681 0.03978383 0.039248843
N 0.9137562 -0.5773145 0.89591724
H -1.8440301 -0.18179381 0.66403246
H 0.8269967 -1.9527009 2.142515
H -1.344417 -1.3183244 -0.58563596
H 0.34586707 2.1003897 -0.53676426
H 1.9078137 1.2541186 -0.3939102
H 0.8389465 0.9604669 -1.789262
H -1.6487241 0.38366422 -1.013805
