12

C -0.34394667 -0.099937335 -0.8564609
N -0.62667865 -1.1643188 0.13091917
C 0.019782424 1.1033726 0.01807248
N 1.1803541 0.32928813 0.55151415
C 0.76315093 -0.828097 -0.21185769
O -0.95450276 1.5019618 0.9252745
H -0.74188244 -0.13203897 -1.863578
H -0.9114678 -1.997162 -0.3867373
H 1.1531432 0.18874094 1.559987
H -1.3524388 0.678858 1.2489669
H 0.36119044 1.9887165 -0.520002
H 1.4532957 -1.5693841 -0.5960983
