10

O 1.7096368 -1.7754128 0.8287082
C 1.1521122 -1.46901 -0.19664824
C 0.19442473 -0.3402793 -0.2630513
N -0.3973104 -0.044084076 -1.3912394
O -1.1947064 1.0282953 -1.1191747
C -1.0663007 1.3603697 0.17834064
C -0.19663857 0.5312817 0.79512346
H 1.3167717 -2.0032558 -1.150794
H -1.6584644 2.2067184 0.4993489
H 0.14047526 0.5053768 1.8193865
