10

O -2.1696312 -0.93422335 -2.252532
C -1.4854844 -0.92782575 -1.2696397
C 0.9156149 0.1528078 1.1378763
N 0.013565737 -0.7091775 0.7835857
O 0.52695155 1.4914966 -0.73892975
C -0.741761 -0.6229647 -0.25051627
C 1.153477 1.3236588 0.29212213
H 1.4632107 -0.014184369 2.0605893
H 1.9149008 2.0458608 0.6299542
H -1.5908444 -1.8054483 -0.39251012
