10

O 1.62479852 1.11375661 0.11579076
C -1.15567625 -1.23115975 -0.25402875
C -0.25200722 -0.37639990 0.48095971
C 0.23056031 0.95865861 -0.04457367
N 0.04163040 -1.58667287 -0.39395508
H -0.10135415 -0.53501430 1.54930032
H -2.14116916 -1.53222728 -0.58651882
H -0.22506332 1.78088015 0.51802775
H 2.05240048 0.34646421 -0.28731999
H -0.07411963 1.06171442 -1.09768271
