10

O 1.9329455 -0.12002189 0.37834907
C 0.76529837 0.61752367 0.08458208
C -0.4905757 -0.1615962 0.41198173
C -1.6161207 -0.2545791 -0.48909694
N -0.8702094 -1.2630433 -0.5673814
H 0.82619715 1.523896 0.6969072
H -0.61336493 -0.42063916 1.4641348
H 0.7314369 0.9264243 -0.9717904
H -2.5270095 0.12409918 -0.9354958
H 1.8614024 -0.9720636 -0.07219045
