10

O -1.2645122 0.7588706 0.014951352
C -0.042337507 -0.79134107 0.97198504
C 0.6983352 -0.32656503 -0.13623847
C 0.013444408 1.0239408 -0.4271367
N -0.42536807 -1.3728509 -0.17045003
H 1.706795 -0.643047 -0.38826907
H 0.52450365 1.795565 0.1737575
H 0.081604 1.3214301 -1.4919156
H -1.2066371 -0.7116624 -0.5631978
H -0.085827336 -1.0543404 2.0165136
