10

O -0.033447307 -1.2745994 1.1018145
C -0.9525011 -0.31560475 0.088347375
C 0.679957 -0.22818679 0.81008613
O 0.50235385 1.0613544 -1.360319
C 0.3639758 -0.12547633 -0.6777999
O -0.91891706 0.77009827 0.8489383
H -1.8824122 -0.815155 -0.19888511
H 1.4548433 0.17421272 1.4644598
H 0.025638208 1.7115742 -0.81549364
H 0.7605097 -0.9582174 -1.2611483
