10

O -0.8166327 -0.08856811 -1.4199992
C -0.49865213 -0.86075765 -0.24380773
C 0.36520678 0.48419142 -0.82579976
O 0.9255764 -0.8319349 -0.5426269
C -0.33204007 0.4564652 0.56166375
O 0.41937336 0.472155 1.7130029
H -1.2196089 1.0782976 0.6835051
H -0.9911146 -1.8175646 -0.0754821
H 0.95902216 1.2018842 -1.3900973
H 1.1888697 -0.09416811 1.5396415
