11

C -0.5315041 -0.0044172117 -0.35705402
C 0.7504589 0.44654164 0.28396985
N 1.5333327 1.5182078 -0.47569433
C -0.8325407 -1.4831431 -0.28965485
C 0.9362088 1.8562915 0.56641024
O -1.26514 0.8007312 -0.8874618
H -1.8089744 -1.6813244 -0.7330518
H -0.8195672 -1.8306226 0.7479736
H -0.06273983 -2.045114 -0.82985204
H 1.3485872 -0.30688578 0.7955439
H 0.7518784 2.7297347 1.1788713
