11

C 0.50897294 -0.9624934 1.5023627
C 0.16425438 -0.12438403 0.3209725
N 0.6359757 1.032867 -0.0077529517
C -0.030874306 1.3585309 -1.1832638
C -0.87751013 0.35990876 -1.5004348
O -0.7631854 -0.6053699 -0.54176223
H -0.38672358 -1.1992247 2.0854716
H 1.2104568 -0.41451114 2.1301863
H 0.9661837 -1.907318 1.1946083
H 0.15338561 2.2875085 -1.7039944
H -1.5809358 0.17448594 -2.2963934
