11

N 1.3747141 0.023264922 0.1805733
C 0.09501268 0.70617473 0.56166095
C 1.1412464 -0.6666847 -0.91594493
C -0.35056832 -0.22116265 -1.0402938
C -0.87813556 -0.47696295 0.39521828
O -0.31140137 1.204763 -0.7015704
H -0.90499306 -0.44439277 -1.9475234
H 2.2483993 0.051042344 0.6855004
H 0.15327004 1.4283442 1.3757242
H -1.9235549 -0.18745816 0.50735676
H -0.6439894 -1.4169279 0.8992988
