11

N 0.74355435 1.738547 2.3402138
C 0.25081816 1.3221122 1.3818891
C -0.3471727 0.7802954 0.14559469
C 0.57963693 -0.1176967 -0.69958264
C -0.40169597 -1.2317915 -0.31278107
O -1.2421923 -0.30265942 0.3994644
H -0.83723724 1.600778 -0.38863397
H 0.5910829 0.14336756 -1.7587879
H 1.5994699 -0.2220692 -0.32929197
H -0.93622845 -1.7115126 -1.1360551
H -3.5466805e-05 -1.9993707 0.3579705
