11

N 1.0361912 -0.0182267 -1.5516311
C 0.2799335 -0.026139475 -0.3748938
C -0.37505212 0.9687009 0.32037616
C -0.87506795 0.31682026 1.4709364
N -0.57363045 -0.96731454 1.4944795
N 0.13423051 -1.1571096 0.35842857
H 1.0268993 0.8985555 -1.9822952
H 0.7322338 -0.7078039 -2.2283437
H -0.48105785 2.0050895 0.03490302
H -1.4548637 0.74372524 2.2780616
H 0.55018353 -2.0562973 0.17997856
