10

C 0.81952447 -0.09574169 0.784576
C 0.44728103 1.1350737 0.26304907
N -0.51005465 1.2605728 -0.656581
C -1.0915622 0.12813151 -1.0469527
N -0.82199544 -1.1041962 -0.6197769
C 0.13772093 -1.2042162 0.29743746
H 1.5985589 -0.18756618 1.5326171
H 0.9283029 2.0551322 0.590469
H -1.8738515 0.21919939 -1.798265
H 0.36607566 -2.2063892 0.653427
