10

C -0.39390865 0.62402457 -0.5890327
C 0.85563517 -0.041072 -1.077558
N 1.3487529 -0.73895353 -0.13557523
C 0.3909834 -0.5049461 0.94477165
N -0.16992329 0.8679662 0.87045056
C -0.9811431 -0.26429594 0.45187336
H -1.9870615 -0.4572419 0.79846716
H -0.9708806 1.3653122 -1.1277672
H 1.2941964 0.046221916 -2.0662882
H 0.6133495 -0.8970153 1.930659
