12

O -0.6600281 1.4930527 -0.81729627
C 0.18630593 0.41824174 -1.1335366
C 0.47935247 -0.4020631 0.12224492
O 1.0358423 0.4500418 1.0871602
C -0.79216367 -1.01181 0.6686567
O -1.1286979 -0.8265872 1.8131742
H -0.25771216 1.917289 -0.04510701
H 1.1408609 0.75362456 -1.5632257
H -0.3272799 -0.19657639 -1.8817693
H 1.1641619 -1.2286925 -0.13351671
H 0.5331076 0.2883757 1.9030138
H -1.3737493 -1.654896 -0.019798642
