12

O -0.20059618 0.94499608 -1.53607038
C 0.51266450 0.58511212 -0.39618238
C 0.41264719 -0.89858711 0.01978524
O -0.58507682 -1.57427370 -0.69679776
C -0.11991233 0.85460949 0.97700935
O 0.00452251 -0.53987215 1.33089124
H -1.16856135 1.17320882 0.91655701
H 1.53925130 0.94865090 -0.48478089
H -0.80779866 0.20945545 -1.72300117
H 1.31587288 -1.51783034 0.01598835
H 0.43340846 1.49254785 1.67204859
H -1.33642144 -1.67801710 -0.09544762
