11

N 0.56244165 -1.4139774 -1.3617307
C 0.1746697 -0.4415059 -0.44856092
C -1.022587 0.103407376 -0.10709962
C -0.7110762 1.1329801 0.8535828
C 0.6284069 1.1205674 1.0115193
O 1.1878057 0.15470073 0.21267146
H 1.4309794 -1.8606123 -1.1058049
H -0.16225117 -2.0971262 -1.5363303
H -1.9964638 -0.17173292 -0.48247793
H -1.4134979 1.7852422 1.3524606
H 1.3215729 1.6880571 1.6117698
