11

N -0.11282434 -1.6643463 -1.0175512
C -0.50946563 0.46549982 0.5355277
C -0.29343504 -0.36484307 -0.68140465
C -0.510242 0.8869909 -0.9261873
C 0.6771792 0.7765294 1.3945886
O 1.8250259 0.6085462 1.0579537
H 0.37947175 -2.2109296 -0.3250778
H -0.63730574 1.7446295 -1.5617838
H 0.431882 1.1819654 2.3997862
H 0.20350201 -1.8385035 -1.961982
H -1.4537882 0.41446188 1.0861305
