11

N 0.18438179 -1.81181726 -0.70817379
C -0.38390106 -0.62803447 -0.37645663
C -1.24402990 0.33084756 -0.49784742
C -0.32543448 0.38461742 0.71358038
C 0.82825870 1.33944807 0.72547453
O 1.58387773 1.50694049 -0.20193025
H 1.14202241 -1.91591038 -0.40367878
H 0.03063915 -2.12755403 -1.65633840
H -2.04890685 0.85892853 -0.97636143
H -0.72412529 0.15912984 1.70741860
H 0.95721799 1.90340442 1.67431277
