11

N -0.06177788 0.1305299 -1.4074761
C -0.68596554 -0.87163615 0.5627291
C -0.42699417 -1.0529413 -0.7596734
C -0.30027312 0.52580315 0.6545445
N -0.67659354 1.1090895 -0.5567783
N 0.9354277 0.9430381 0.9252096
H 1.380483 0.3800371 1.6497344
H -0.7841848 -1.5985903 1.354597
H -0.17938006 1.9864078 -0.6881437
H -0.33852127 -1.9875542 -1.3008184
H 1.1377798 0.4358164 -0.43392465
