11

N 1.0351715 -0.016765172 -1.5510609
C 0.27940544 -0.025605958 -0.37416634
C -0.37501863 0.9685026 0.32011768
C -0.8748835 0.31506145 1.4701037
N -0.57347506 -0.9679776 1.4935758
N 0.13442995 -1.1564054 0.35795718
H 1.0287884 0.8975209 -1.9834876
H 0.73136765 -0.70710725 -2.2272794
H -0.48137185 2.0054364 0.036192574
H -1.4541599 0.74310136 2.278489
H 0.549746 -2.0557613 0.17955838
