11

N -0.72341424 -1.3015056 -0.07996253
C 0.645252 0.26832888 0.80908686
C 0.08509127 -0.9351841 0.99147457
C 0.1460808 0.79167664 -0.4697931
N -0.83101326 -0.1323756 -0.8734001
N 0.43805754 1.7939078 -1.2002592
H -1.6412858 -1.637957 0.18739162
H -0.84940493 -0.32945257 -1.8637607
H 1.3733348 0.76005906 1.4389341
H 0.1921588 -1.6281763 1.8163975
H 1.1651431 2.350679 -0.75610906
