11

C 0.9377876 1.0899346 -0.7685324
N 0.08884608 0.1380332 -0.08645606
C 0.37948316 -1.0686939 0.425623
N -0.69861627 -1.6120408 0.9599826
C -1.6393788 -0.66445965 0.73647296
N -1.217872 0.4131344 0.107688725
H 0.572838 1.2447819 -1.7860309
H 0.92372614 2.0400105 -0.23055354
H 1.9572122 0.6989191 -0.7977575
H 1.366882 -1.5088965 0.3920248
H -2.6709082 -0.7707226 1.0475383
