12

C -0.6287992 -0.7688449 1.9013959
C 0.9362854 1.0868393 -0.91751415
N -0.58428127 0.26843485 -1.5440967
N -0.53296316 -0.7694487 0.5231279
C -0.5537744 0.40811864 -0.21639124
O -0.7266464 -1.774878 2.5621963
H 1.4984397 0.6614734 -1.7549531
H -0.5536105 -1.6871936 0.085717335
H 1.5192267 0.8944367 -0.010111218
H 0.7390759 2.1415107 -1.0678593
H -0.60281634 0.25422034 2.3097792
H -0.5101364 -0.71466887 -1.871291
