12

N -1.51734765 -0.98958835 0.84600853
C -0.49181053 -0.31933979 0.19120544
C 0.41945036 0.86658102 0.41895018
N -0.63653740 0.85629708 -0.63790379
C 0.02379985 -0.35866955 -1.20448546
N 1.45586387 -0.18249610 -1.29276881
C 1.69537143 0.57071533 -0.28896226
H -2.22665973 -0.38071775 1.22266469
H -1.18307805 -1.66468074 1.52008860
H 0.28298865 1.55883379 1.24287266
H -0.50748485 -0.87942371 -1.99602370
H 2.68544411 0.92248867 -0.02164596
