12

C -0.087232955 -0.791292 0.7228726
N -0.7228191 1.157815 0.013972765
C -1.2607051 -0.055800606 -0.2768714
N 1.0421444 -0.05911246 0.62636703
C 0.6828505 1.1231183 -0.23371883
O -1.0170102 -0.6947417 -1.4274005
H -0.20152406 -1.5149142 1.5285039
H -2.2378004 -0.22853686 0.19689912
H 1.9224048 -0.5484471 0.57079506
H -0.2657121 -1.3038434 -0.58361715
H 0.93722653 0.91099966 -1.2787577
H 1.2081779 2.0047553 0.14095521
