12

C 0.23833008 0.6101126 -0.5866146
N -0.36320361 -0.67623085 -0.9185386
C 0.90115684 0.24322279 0.7639316
N 0.17248747 -0.92540467 1.2758313
C -0.49319026 -1.3637375 0.27426907
O -0.7147614 1.6386185 -0.5028246
H -1.1035846 -2.2633042 0.31250924
H 0.8597179 1.0800999 1.4658214
H 0.94626105 0.9244624 -1.3545513
H -1.103362 -0.68509847 -1.6061839
H -1.2940083 1.4461082 0.24820445
H 1.9541569 -0.028848585 0.6281465
