12

C -0.23674593 0.62003521 -0.57676953
N 0.23414804 -0.71364243 -0.93209843
C 0.45753503 0.78007739 0.79810608
N 0.73218989 -0.58004570 1.28113857
C 0.58594537 -1.33045594 0.25454886
O -1.63863551 0.69537758 -0.52925492
H -1.94156552 0.13440270 0.19887447
H 0.07442600 1.35843843 -1.31679760
H -0.17306734 1.33406300 1.49822777
H 0.77153786 -2.40218933 0.26892870
H 1.40690727 1.31940653 0.70278568
H -0.27267517 -1.21546734 -1.64768989
