11

O -1.1209109 1.25544 -0.4848797
C -0.612525 0.7312249 0.7178372
C 0.46471968 -0.29837862 0.45382667
C 0.42626727 -1.1373785 -0.7406152
O 1.2829033 0.005290273 -0.669913
H -0.3503815 1.4292051 -1.0420274
H -0.19338183 1.5250394 1.3573741
H -1.4462522 0.272151 1.2576181
H 1.0124015 -0.65347356 1.3283504
H -0.40832213 -1.0348573 -1.4309969
H 0.9454821 -2.0942626 -0.7465742
