11

O -0.7020177 0.029063612 2.4590483
C 1.1241964 -0.047862623 -1.0272797
C -0.6769584 -0.43094483 1.3452474
C -0.89205825 0.38870007 0.08279438
O -0.28217173 -0.19399303 -1.0356
H -0.5285072 -1.5167693 1.1562309
H 1.4148593 1.0127649 -1.0290871
H -0.56934553 1.4255402 0.25871402
H -1.9706388 0.39676696 -0.11797807
H 1.4989089 -0.5234456 -1.9352709
H 1.5837332 -0.5398202 -0.1568188
