11

N 0.104893975 0.7126242 -1.7193016
C -0.005464576 0.16847275 -0.43661183
C 0.8898906 -0.50281274 0.3690386
C 0.13068964 -0.85726416 1.507957
N -1.1193581 -0.4416959 1.4320847
N -1.1822966 0.18180299 0.23495938
H 1.0508655 0.63191587 -2.0695028
H -0.19272771 1.6782054 -1.7744349
H 1.9319462 -0.7014382 0.1655069
H 0.46061906 -1.3971428 2.385482
H -2.0690582 0.5273323 -0.095176965
