11

N -0.04897783 -0.054932427 -1.9852884
C 1.0457761 0.34517145 0.30907342
C -0.0110520115 0.13668597 -0.6223823
C -0.6789841 -0.097840786 1.4974296
N 0.5831228 0.1894202 1.6091994
N -1.0971458 -0.14168602 0.19190285
H 0.76073176 -0.7754077 -0.8263117
H -1.3515729 -0.28758982 2.3237214
H 2.0612035 0.636642 0.07754382
H -1.9949406 -0.41029167 -0.17488618
H 0.7318393 0.4598288 -2.400002
