10

O -1.0685138 -1.1151817 -1.2759883
C -0.89796937 0.10364675 0.79096556
C -0.41009995 -0.44706634 -0.5203077
C 1.8933076 0.5494325 -0.3050631
N 0.9446362 -0.15282778 -0.89302784
H 1.4612412 0.93870246 0.6409743
H -0.2731753 -0.24330397 1.6217324
H -0.88281775 1.1990608 0.7906959
H -1.9229085 -0.24091831 0.93750316
H 1.1562995 -0.59154445 -1.7874843
