10

O -1.6882257 -0.5927749 -1.5269965
C -0.80583316 -0.26706833 -0.7763839
C -0.37441164 -0.61949044 0.6612362
C 0.7698935 0.39966917 0.44401854
N 0.24196985 0.6091481 -0.9005455
H -1.108452 -0.35258347 1.4247019
H -0.06274521 -1.6574876 0.7898912
H 0.7249661 1.2888129 1.0791935
H 1.7792429 -0.020686118 0.46469674
H 0.5235952 1.2124608 -1.6598126
