10

O 0.82340056 0.93231213 -1.70902
C -0.01759045 0.81437665 -0.60470897
C 0.20753084 -0.4899517 0.12252016
O 1.023076 -1.2991295 -0.26212412
C -0.61675113 -0.78577435 1.3645234
O -1.4394729 -0.020667465 1.7901042
H 1.3459915 0.119567975 -1.7486359
H 0.13875818 1.6349808 0.11168187
H -1.0787793 0.8602481 -0.8955566
H -0.38616332 -1.7659627 1.8312159
