10

O -0.512859 -0.32699898 1.4851557
C -0.08232389 0.13973112 -0.45933926
C 0.8167672 -0.91175216 0.22327727
O -0.19106272 0.38067362 -1.7102082
C -0.7840555 0.7275956 0.698019
O 1.9560579 -0.5804358 0.47061864
H -1.842813 0.9443609 0.44984606
H 0.46598437 -0.1210432 -2.2263858
H -0.31434634 1.7009481 0.95219487
H 0.48865083 -1.9530793 0.11682189
