12

C 0.9651208 -0.2738092 1.4858367
N -0.7078877 -0.07144851 -0.71854925
C 0.34956357 0.7887106 -0.72005445
N 1.1119423 0.65096384 0.3622573
C -1.6017464 -0.037794165 -1.7814908
O -2.5633454 -0.7615234 -1.855006
H -0.94691974 -0.76020837 -0.003324864
H 0.028785238 -0.09276442 2.0284052
H 1.7965846 -0.12241082 2.1773574
H -1.3209872 0.72128576 -2.5263987
H 1.9021584 1.274275 0.407895
H 0.98673147 -1.3152763 1.1430727
