12

C -0.28974308 0.98246920 -0.46210473
N -0.82204910 -0.27094304 -0.52282703
C 1.45511726 -0.04411288 1.04634031
N 0.79459871 1.03200583 0.30818303
C -1.96685619 -0.47771167 -1.28218478
O -2.50183028 -1.55334413 -1.38552234
H -2.31101692 0.45036976 -1.76190771
H 1.21718295 1.94296870 0.38948679
H 0.79110258 -0.46553674 1.81143411
H 1.77779139 -0.84442995 0.36959672
H 2.33817190 0.36126278 1.54467702
H -0.48246914 -1.11299794 -0.05517183
