10

N 0.9032702 1.9303405 -1.8419918
C 0.3533865 1.0809897 -1.2824972
C -0.32594648 0.02223419 -0.57321376
C -0.48341057 0.11919997 0.9275392
C 0.465151 -0.8782269 0.348913
H -1.1415133 -0.4307904 -1.1302092
H -1.4229308 -0.22938448 1.342398
H -0.06845212 0.9968965 1.4133158
H 0.19160275 -1.9276344 0.3572741
H 1.5288429 -0.68362486 0.43847206
