9

O -1.29416826 -0.14137891 1.69924139
C 0.01023312 -0.44919592 1.26812151
C 0.24138570 -0.14049404 -0.15337010
C 0.38593750 0.15526241 -1.30581280
C 0.68673109 0.77099881 -3.72233401
N 0.54724357 0.48132154 -2.58596692
H 0.13280634 -1.52389137 1.43387786
H 0.77304096 0.06514614 1.87161353
H -1.48320975 0.78223121 1.49462977
