9

O -2.0836506 -0.44484392 0.20686929
C 0.29003972 -0.0605942 0.11718919
C 3.161393 0.66953087 -2.116396
C 1.2174479 0.17676224 -0.6039677
C -0.89569163 -0.31897074 0.9518445
N 2.248487 0.4383596 -1.4037514
H -2.1936433 0.33914894 -0.34441563
H -0.7722851 -1.2702041 1.4785281
H -0.9720971 0.47081122 1.7140996
