12

C 0.31441414 0.96367574 -0.049977377
C 0.36359876 0.5213136 1.4027025
N -1.310443 -1.0665776 -0.80661017
C -0.1200956 -1.0347939 -1.2399248
O 0.7604689 -0.06950165 -0.9358553
H -0.6970615 1.2684698 -0.33686784
H -0.35185292 -0.28664652 1.57756
H 1.3684831 0.17838871 1.6690378
H 0.10316191 1.3650502 2.0513256
H 1.0079688 1.7882302 -0.23307139
H 0.35784122 -1.7517035 -1.9172621
H -1.7964836 -1.8759053 -1.1810571
