12

C -0.35126847 -1.1028504 0.9804782
C -0.26037827 -0.6280076 -0.4676646
N -0.26291022 0.81965685 -0.5861757
C 0.8783096 1.5496135 -0.49536583
O 1.9953387 1.0787594 -0.40561923
H -0.34455162 -2.1959546 1.0248607
H -1.2729032 -0.74741143 1.456015
H 0.50374967 -0.7262476 1.5499421
H -1.0953807 -1.0155556 -1.0589398
H 0.67002463 -0.9820552 -0.9228894
H -1.14276 1.3117573 -0.54214925
H 0.6827297 2.6382957 -0.53249234
