11

N 1.21158510 0.31748297 0.58363782
C 0.70725116 -0.02933903 -0.53771096
N 1.36863542 -0.24266400 -1.71281432
N -2.23476196 0.15803183 1.19401719
C -1.07074863 0.20258788 0.71928168
N 0.08379868 0.59166816 1.35619283
O -0.64972552 -0.11520208 -0.57067132
H 2.36614079 -0.32645873 -1.58756834
H 0.96485874 -0.95100516 -2.30697456
H 0.16475192 0.54557891 2.35763362
H -2.91178587 -0.15068073 0.50497664
