11

O 1.4487287 0.0034395282 0.10500713
C 0.6499827 0.54290855 -0.92524254
N -0.19395202 0.5331228 1.636381
C -0.65274537 -0.18072361 -0.6500435
C 0.37316886 -0.4524439 0.95084816
O 0.07484737 -1.6693381 0.8729046
H 0.5168199 1.6237711 -0.80892813
H -0.78801787 -1.167284 -1.0773381
H -1.5482668 0.3656395 -0.3819222
H 1.0530299 0.2993383 -1.9146534
H -0.93359554 0.10156992 2.192987
