11

O -1.25610667 0.14096026 0.02710805
C -0.51372889 -0.74989022 0.85187103
N -0.76578130 1.95304523 -1.28121622
C 0.85431666 -0.76204360 0.18067705
C -0.38740879 0.95104033 -0.62490028
O 0.89482707 0.51616250 -0.44875049
H -1.01051368 -1.72169002 0.85510238
H 0.93675043 -1.54383346 -0.58205396
H -0.46896319 -0.35010241 1.87094329
H 0.02840051 2.40181049 -1.73050070
H 1.68820822 -0.83545932 0.88171965
