11

O -2.011629 0.9911266 1.3802487
C -1.0811069 0.613394 0.7252169
N -0.9753777 -0.55021113 -0.013362033
C 0.40697733 -0.80707294 -0.35899267
C 0.9416073 0.62932324 -0.32516417
O 0.08128918 1.3097458 0.58897144
H -1.6078715 -1.2927366 0.23928216
H 0.90538603 -1.445305 0.38059065
H 0.51035744 -1.2636987 -1.3469282
H 0.8622394 1.1096897 -1.3050908
H 1.9681288 0.7057448 0.03522782
