9

O -1.1579732 0.9415508 -1.4183117
C 0.8190619 0.36077175 -0.10199253
N 0.91183 -0.5476601 0.9093001
N -0.24471256 -1.1494352 1.1526076
N -1.1152755 -0.656274 0.31834844
C -0.50305253 0.2643438 -0.45940426
H 1.719986 -0.8008502 1.4555011
H 1.645712 0.9544952 -0.45468825
H -2.075576 0.6330582 -1.4013608
