9

O -1.9686716 0.4231453 0.0778954
C -0.6574922 0.13425341 0.032200877
N -0.10951752 -0.8946573 0.6573256
N 1.1757134 -0.7812076 0.3288199
N 1.4969835 0.22694114 -0.44909075
C 0.33835533 0.84336394 -0.66301286
H -2.3994308 -0.23972516 0.6340208
H 1.8622948 -1.440165 0.6578771
H 0.26176524 1.7280515 -1.276036
