11

O 1.42531241 0.89455700 -0.47249353
C -0.88294783 0.26581598 1.08339143
C -0.46758975 -0.54091154 -0.06047985
C 0.52258722 -0.00487887 -1.07100062
O 0.09514582 -0.76705791 1.22809277
H -0.00570097 0.53830535 -1.86034397
H -0.49412261 1.27660088 1.18869405
H -1.83659213 0.05890916 1.56688052
H 1.72148344 0.47023857 0.34472038
H -1.12513480 -1.33763495 -0.40956209
H 1.04755938 -0.85394384 -1.53789928
