11

C 0.120213605 -0.3187958 0.5451047
C 1.2069923 -0.7450449 1.1279975
C -1.2704593 -0.34693938 1.1300404
C 0.23845422 0.15379469 -0.8958999
O -0.71769685 0.1189478 -1.6434853
N 1.4715056 0.5894273 -1.2518535
H -1.2949963 -0.86075926 2.09108
H 2.2032328 0.7082256 -0.57125866
H 1.611878 0.88208103 -2.2064714
H -1.9261628 -0.85704726 0.41768524
H -1.642961 0.6761101 1.2570608
