11

C -0.7298477 -0.17095475 -2.31543
C -0.16300106 -0.12013746 -0.9698079
C 0.32030308 -0.08569213 0.13406415
C 0.97753525 -0.09859677 1.4398715
O 2.084528 -0.56501484 1.6141589
N 0.24173939 0.47179854 2.4384148
H 0.010868139 0.15316324 -3.0529256
H -1.6068772 0.47471294 -2.4016309
H -1.0282751 -1.1946179 -2.5632367
H 0.6109616 0.39833176 3.374624
H -0.7179343 0.7370074 2.3018966
