11

C -0.59793234 1.5546583 -0.44584975
C -0.8629724 0.14041863 -0.11281724
C 0.42945483 -0.9058256 -0.22223492
C -1.4551997 -0.974185 0.051891368
O 0.9943204 -0.9550707 -1.2842952
N 0.9684624 -1.2935985 0.969251
H 1.8054343 -1.8559086 0.91334164
H -0.22867359 1.6264288 -1.4742075
H 0.3394024 -1.452346 1.7412311
H 0.13923766 1.9970616 0.22988087
H -1.5315338 2.118367 -0.36619133
