11

C 0.16568758 0.421655 0.7019044
C 0.5245758 1.3645759 -0.41644618
C -1.1006316 -0.53747594 0.3007883
C -0.10278347 -1.5985342 -0.055342678
O 0.57475114 0.4257134 1.8159442
N -2.2309945 -0.8155849 0.050524376
H 1.6123482 1.4406202 -0.4893558
H 0.12580757 2.3514466 -0.16092812
H 0.0934933 1.0498705 -1.3692234
H 0.24357504 -2.269896 0.7202409
H 0.09417079 -1.8323903 -1.0981061
