11

N 1.3464557 0.56944704 1.8384122
C 0.63989717 0.26727772 0.83555347
C -0.76724637 -0.17729989 0.8535528
C -1.157494 -0.39571995 -0.39692265
C -0.012746335 -0.1092774 -1.323647
O 1.0553948 0.29666477 -0.46921635
H 2.28271 0.84957474 1.5523347
H -1.3276913 -0.28451994 1.7732878
H -2.1303372 -0.7279551 -0.7425639
H -0.23102325 0.7015526 -2.027902
H 0.30208102 -0.9897447 -1.8928888
