10

O -1.768701 -1.107047 1.2135468
C -0.87719405 -0.5488368 0.6023912
N -0.86593777 -0.13881928 -0.7208852
C 0.34442765 0.46544898 -1.0511206
C 1.1139795 0.44818136 0.05044364
N 0.37437996 -0.16784576 1.0586678
H -1.6529466 -0.27981165 -1.3305464
H 0.54416096 0.8507644 -2.0389173
H 2.1148796 0.8154963 0.21314801
H 0.67295134 -0.33753034 2.0032725
