10

O 1.3248894 -0.54083776 1.8918834
C 0.0033484958 0.7053072 -0.9460128
N -0.58744806 -0.8750019 0.64956814
C -1.0717367 -0.27333117 -0.57874113
C 0.5263936 -0.28948104 0.8510362
N 0.95383215 0.69049203 -0.08324919
H 2.0973752 0.03518286 1.8082776
H -1.2215943 -1.0301734 -1.357424
H -2.036331 0.22163361 -0.42039448
H 0.011271255 1.3562098 -1.8149438
