12

O -0.54430753 0.6172105 -1.699411
C 0.1863864 1.173415 -0.6331986
C 0.3631638 0.1628952 0.4875878
C -0.712107 -0.788116 0.8352885
N 0.42228603 -1.2218232 0.015429439
H -0.23521946 -0.2999513 -1.7623134
H -0.36553532 2.0488424 -0.27216005
H 1.1812689 1.5158099 -0.9614388
H 1.0472525 0.45652482 1.2822413
H -1.657207 -0.7369723 0.30458927
H -0.77079237 -1.1468003 1.8624146
H 1.0848107 -1.7810347 0.540971
