10

N 0.6152683 0.15388998 0.80666596
C -0.48976836 0.5421512 -1.2312665
C -0.5025372 -0.8558553 -0.837963
C 0.18792333 -1.0509813 0.32836998
C 0.15838194 1.1335582 -0.0848152
H -0.95975214 -1.647706 -1.4191406
H -1.0486195 1.2362334 -0.11671603
H 0.54950255 2.1436322 -0.009245072
H 1.0955184 0.3033925 1.6785814
H 0.39408275 -1.9583147 0.88552904
