10

N 0.9031121 1.9268509 -1.8474342
C 0.35169044 1.0788598 -1.2853687
C -0.3283543 0.02224862 -0.5728296
C -0.4817915 0.12088387 0.92854357
C 0.46480498 -0.877666 0.34912655
H -1.1452775 -0.4313007 -1.1262907
H -1.4208813 -0.22667041 1.3464973
H -0.06426515 0.9980816 1.4125626
H 0.19234262 -1.927721 0.35898885
H 1.5286194 -0.6835668 0.43620458
