11

N 2.12522050 0.26026283 -0.25976343
C 0.87729485 0.14394200 -0.16368150
O -0.02321576 0.06447807 -1.18048831
C -1.31096185 -0.16630679 -0.60749493
C 0.10084661 0.05586558 1.12901813
O -1.24570437 0.23221828 0.72476570
H 0.26413779 -0.92352205 1.59909133
H 2.42635177 0.27822323 -1.23100025
H -2.04824436 0.44362923 -1.13099093
H 0.38130639 0.84639760 1.82715538
H -1.54703142 -1.23518817 -0.70661145
