11

N 1.1098996 1.8477846 -0.07477191
C 0.4307329 0.79010254 -0.08581549
O -0.96690005 -0.89574635 0.6274814
C -0.008144262 0.015948819 1.1347477
C -0.66226095 -1.0771059 -0.7187366
O -0.037622653 0.12336891 -1.1754206
H -0.47421682 0.66186315 1.8807807
H 0.036424372 -1.9112071 -0.87421757
H 0.8527734 -0.49929217 1.582163
H 1.303794 2.1786144 -1.0167168
H -1.5844797 -1.2343308 -1.2794936
