11

C 0.59350467 0.73383737 2.2427013
C 0.30438387 0.16803856 0.9266306
C 0.07631197 -0.31429875 -0.15315926
C -0.14361012 -0.97001517 -1.4410063
O 0.32848087 -2.0552251 -1.7123063
N -0.9371061 -0.26356542 -2.296743
H 0.4563845 -0.020734068 3.0210097
H -0.06287423 1.5795828 2.4633386
H 1.629639 1.080599 2.2862034
H -1.0328232 -0.62194586 -3.2354507
H -1.2122912 0.6837267 -2.101218
