11

N 0.10350202 0.12589003 0.011031813
C 0.22805957 1.480882 0.057554245
O -1.628281 -0.051552594 1.5362169
N 1.2697787 1.877794 -0.6787018
C -0.89466965 -0.56308347 0.7311035
N -0.89409894 -1.9160159 0.43660325
H 1.4737628 2.8595839 -0.7263307
H 0.7685395 -0.46764225 -0.49459976
H 1.889132 1.2731675 -1.2174805
H -0.62829566 -2.2187378 -0.48562345
H -1.6874293 -2.4002855 0.8302268
