11

N -0.034530014 0.18652853 0.13840653
C 0.29151466 -0.8625687 -0.7486651
O 1.4177307 -1.1147429 -1.0941688
N -0.8161124 -1.585636 -1.1265775
C 0.84695137 1.1559268 0.5007213
N 0.47636458 2.054566 1.4236842
H -0.63324094 -2.247879 -1.8644111
H -0.97046304 0.20534585 0.5386767
H 1.5646309 1.4800113 1.5004362
H -0.42471966 1.8689542 1.8908681
H -1.7181259 -1.1405059 -1.1589706
