11

N -0.69594634 0.4050879 1.9839414
C 0.022104532 -0.2637305 1.0157993
O 0.738055 -1.2135158 1.2472043
N -0.12547097 0.28190157 -0.25267655
C 0.5235202 -0.23166403 -1.36446
N 0.4062014 0.35405225 -2.4864292
H -0.72786206 -0.085138835 2.8649275
H -1.5482883 0.8786451 1.7215841
H -0.6212271 1.1516378 -0.3936274
H 1.0937618 -1.1335928 -1.1407877
H 0.93515205 -0.1436826 -3.1954753
