10

O 0.7973427 1.9325063 -0.75930274
C 0.3553168 0.8889757 -0.3770918
C -0.9295318 0.442636 0.32843432
N -0.5083531 -0.95569044 0.09308512
C 0.8343397 -0.564462 -0.390267
H -0.9580958 0.7660897 1.378304
H -1.8738973 0.7248309 -0.15005824
H -0.49341956 -1.5267423 0.9300309
H 1.6634502 -0.7300301 0.31219164
H 1.112848 -0.97811335 -1.3653262
