10

O -0.5870095 0.22736686 -2.4465303
C 0.038895875 -0.060620427 -1.458388
C -0.2869322 0.55330735 -0.12198794
O 0.8447542 0.78505427 0.75765646
C -0.400978 -0.310568 1.0712063
O 0.34788522 -1.363364 1.1368413
H -0.9330717 1.4262726 -0.20379613
H 0.86694884 -0.7992243 -1.4697067
H 1.1746612 -0.44110754 0.8472601
H -1.0651538 -0.017116867 1.8874451
