11

O -2.2970514 -0.6253163 -0.42646018
C -1.1543254 -0.37452614 -0.16193853
C 0.11532001 -1.2125016 0.04072924
N 0.7557082 -0.051200192 0.72992516
C 0.8572067 0.98015434 -0.2835145
C -0.44345438 0.81185937 0.41392165
H -0.057320204 -2.0406036 0.7342942
H 0.65919167 -1.5748167 -0.8370198
H 0.95795906 0.70087975 -1.3306311
H 1.4541043 1.8349465 0.023383174
H -0.8473387 1.5511247 1.0973109
