11

O -2.2988172 -0.6209695 -0.4208348
C -1.1545616 -0.37329152 -0.15956001
C 0.11435584 -1.2133826 0.042596206
N 0.7580422 -0.04917933 0.7298866
C 0.8580109 0.9797767 -0.28525493
C -0.44243336 0.8113611 0.41234592
H -0.058316477 -2.0393622 0.73699963
H 0.6564958 -1.5758201 -0.8365986
H 0.9601336 0.6919143 -1.3300276
H 1.4542804 1.836765 0.01770703
H -0.8471903 1.5521883 1.0927407
