11

O -1.2694256 2.2201984 0.49830645
C 0.9392468 -0.925572 -0.9399673
C -1.0834308 -0.31659365 0.49703997
N 0.3645215 -0.605819 0.27474648
C 0.7213838 0.7278155 0.3357853
C -0.66791534 1.1809115 0.4496784
H 1.548306 -1.8202926 -1.0222064
H 0.8894789 -0.22961621 -1.7744021
H -1.411356 -0.66609365 1.4793631
H -1.7481099 -0.67684513 -0.29383397
H 1.7173008 1.1119066 0.49549022
