11

O -1.3181239 1.4495573 2.0151606
C -1.2283344 0.14243312 -0.0838932
C -0.8276324 0.81492335 1.1143214
N 0.046552744 -0.25682357 -0.39989066
C 0.63400984 -0.9212674 -1.3466699
C 0.638762 0.38148156 0.8030996
H 0.039142072 -1.3174888 -2.1593232
H 1.3439848 1.1720232 0.53521085
H -2.1218238 -0.04736515 -0.66090196
H 1.7066231 -1.0648676 -1.2942208
H 1.08684 -0.3526062 1.4771075
