11

N -0.41562063 -0.5527695 -1.4644792
C 0.19355911 -1.294128 -0.6386481
O 0.76948893 -0.8162836 0.4716983
C 0.69905174 0.5961818 0.63149214
C -0.72933245 1.0785755 0.8018261
O -1.0276022 2.2415674 0.7066767
H -0.7884694 -1.0963442 -2.2358067
H 0.3409905 -2.37645 -0.69109493
H 1.1586119 1.1180304 -0.21222273
H 1.2592304 0.8097581 1.5469306
H -1.4599078 0.29186192 1.0836277
