11

N -1.3263714 0.878417 -0.10902842
C 0.0067111305 0.99975795 -0.3283728
O -0.04163701 -1.464435 -0.172914
C 0.81727815 -0.27391478 -0.22860914
C 1.1479706 -0.9013279 1.0801116
O 0.5777698 2.053495 -0.53828615
H -1.7541634 -0.012485173 0.07401782
H -1.8742391 1.7240655 -0.055951606
H 0.40921813 -0.4727448 1.7876189
H 1.5598702 -0.31131303 -1.0267984
H 0.47759277 -2.2195153 -0.48178792
