11

N -0.06556567 -1.6381636 0.13199508
C 0.20580223 -0.5753067 0.93203765
O 0.79012126 -0.62685597 1.9953011
C -0.25062865 0.7446301 0.35929847
C 0.2529126 1.1940598 -0.9426481
O -1.0709835 0.69733185 -0.8008069
H -0.7228535 -1.5259616 -0.62309456
H 0.13258953 -2.562493 0.48675105
H -0.5304362 1.48417 1.106979
H 0.33173177 2.2617955 -1.1452749
H 0.92731005 0.54679394 -1.5005382
