11

N -1.19555850 0.03403410 -1.05463093
C 0.52285338 0.24577002 1.72136308
O 0.36217233 -1.24775418 0.69867247
C 0.84402316 0.07474829 0.27797948
C -0.01989031 0.66643040 -0.81416507
O 0.34143757 1.68561099 -1.37205976
H -1.45952152 -0.79977778 -0.55935334
H 1.10762605 -1.72494322 1.08820845
H -0.55211011 0.51825750 1.73583179
H -1.84247613 0.46919455 -1.69512333
H 1.89144401 0.07842965 -0.02672314
