11

N 2.2598221 -0.6439436 0.72414607
C 1.1073742 -0.31765985 0.34257293
O 0.5082921 -0.90272033 -0.7229378
C -0.8563167 -0.49905732 -0.7563856
C -0.8355107 0.80474836 0.03771631
O 0.28857294 0.62444174 0.8965793
H 2.550007 -0.06368705 1.5032711
H -1.4745895 -1.2643648 -0.2766185
H -1.1592069 -0.37708256 -1.7978854
H -0.6653166 1.677624 -0.6023379
H -1.7231278 0.9617015 0.6518794
