11

N 2.60440580 -0.60558017 0.53825004
C 1.57019144 0.10382708 0.58382821
O 0.44313293 -0.37828570 -0.04023350
C -1.79076680 -0.33797647 -0.76701070
C -0.69193672 0.38438528 -0.04203203
O -0.75574984 1.46728317 0.47378130
H 3.36053641 -0.14005406 1.03182261
H -1.99108368 -1.29321532 -0.27354007
H -1.47719904 -0.55575513 -1.79216442
H 1.41739577 1.07482437 1.05701960
H -2.68892612 0.28054705 -0.76972111
