11

N 1.2837267 1.2408458 -1.4066244
C -1.0834916 0.06838726 0.7536803
O 1.1822354 -0.427817 0.74375355
C 0.50923926 0.6706454 -0.62272644
C 0.026293265 -0.94030625 0.50024855
O -0.5290827 1.1855708 0.055457678
H -1.1600124 0.33806434 1.8083471
H -2.0528224 -0.21126941 0.33379275
H -0.03102725 -0.60140055 -0.9205095
H 2.0036829 0.6950322 -1.8450274
H -0.14874129 -2.0177526 0.5996078
