11

C -0.61265558 -1.95833636 1.05211286
C -0.67168487 0.05652895 -0.12275861
C 0.06741087 1.26597673 -0.44688545
C -0.23541059 -0.66306996 1.02430016
O -0.17958448 2.17983872 0.32973956
N 0.86354043 1.37239141 -1.54749690
H 0.76752101 0.67670795 -2.27134267
H 1.06029804 2.31824085 -1.84603219
H -1.37932917 -2.30387885 0.36232309
H -0.15231961 -2.68589625 1.71462112
H 0.47221363 -0.25850318 1.75141854
