11

C -0.73158294 -0.17171958 -2.3146684
C -0.165659 -0.12111145 -0.9672926
C 0.31878573 -0.08719838 0.13423061
C 0.9793548 -0.097064726 1.439293
O 2.0875473 -0.56318015 1.6064268
N 0.24592602 0.4730664 2.437667
H 0.010568683 0.15409124 -3.0508392
H -1.6072525 0.47685495 -2.4007156
H -1.0303632 -1.1936458 -2.5639646
H 0.6100288 0.39958233 3.3749712
H -0.717354 0.7303252 2.3048913
