10

O -1.129467 0.09506585 -0.59641194
C -0.3986495 -0.7486743 0.8639089
C -0.1598224 1.1813891 -0.7410474
O 1.2039663 0.16092253 -0.5812131
C 0.81582284 -0.8085419 0.14111714
O -0.13363026 2.0663629 0.0865769
H -0.6202874 0.14470546 1.4345131
H -0.1087347 1.3224336 -1.8424836
H 1.3926768 -1.736567 0.051919263
H -0.8618744 -1.6770961 1.1831208
