10

O 1.04669756 0.00627862 -0.80996231
C 0.22191854 -0.04346257 -1.88264531
C -0.02366034 -0.55882150 1.12318071
O 0.69438288 -1.05752832 0.07660306
C -0.41122751 0.68606257 1.36357049
O -0.78988861 -0.65725738 -1.99236034
H 0.67261382 0.63513287 -2.62720044
H -0.15228175 1.52225439 0.72465187
H -1.01213219 0.86541254 2.24608419
H -0.24642235 -1.39807126 1.77807732
