9

N 1.30281379 0.14744471 0.09268234
C -0.62845460 0.64564785 -0.29554503
N -1.01693428 -0.61015000 0.27612666
C 0.17870174 -0.54972914 -0.54964759
O 0.43193150 1.26204904 0.42641956
H -1.31079406 1.28484441 -0.83897039
H 1.56668979 -0.28522899 0.98234311
H -0.85004476 -0.66388820 1.28168645
H 0.32609081 -1.23098926 -1.37509487
