12

N -0.2701752 -0.007649816 -2.0510085
C -0.15988906 -0.037947778 -0.65329033
C -1.0323788 -0.3122335 0.33388963
N -0.35592568 -0.100597285 1.5496209
C 0.93416566 0.33186015 1.3320369
O 1.7737961 0.6584333 2.1494796
N 1.05001 0.3122282 -0.054585624
H 0.29028618 -0.7263341 -2.4973986
H -1.2320328 -0.11981092 -2.3411224
H -2.0475414 -0.6723405 0.29214734
H -0.76276684 -0.091766834 2.4681346
H 1.8124515 0.766159 -0.52790356
