12

N 0.83168295 -0.23197396 -1.16183311
C -0.60684490 -0.30263467 -1.02146741
C -0.97044627 -0.00819938 0.26070434
N -1.96655755 0.10929521 1.06673361
C 1.49081605 0.09455445 -0.06519436
O 2.65536850 0.23189495 0.21556321
N 0.38457574 0.29350005 0.95351835
H 1.33872210 -0.43217593 -2.01142155
H -1.21362680 -0.59223154 -1.86222278
H -2.83133913 -0.08909536 0.56908797
H 0.51075456 -0.32770582 1.75207176
H 0.37689440 1.25477192 1.30445993
