11

N 0.97371692 0.48465998 1.17830038
C -0.05900766 -0.40599087 -1.72230499
C 0.14138529 -0.02494215 0.16396575
O 0.46523804 -1.13661521 -0.62668327
C -0.39319141 0.01477975 1.52736758
O -0.34062215 0.73568020 -0.90895176
H -0.96798999 -0.85106983 -2.13697658
H -0.40896316 -0.87339964 2.15246482
H 0.68670008 -0.19950285 -2.49341044
H -1.15778557 0.76119374 1.73695851
H 1.06051951 1.49520677 1.12926998
