11

N 0.13205904 0.23503329 1.5807376
C -0.02070494 -0.050725043 0.21093822
C 0.82392514 -0.6784839 -1.4126047
O 0.15370929 -1.3261299 -0.3447106
C -1.1771426 0.49536836 0.925535
O 0.6767261 0.6092104 -0.808917
H 0.2861872 -0.75252813 -2.3621583
H -1.9805467 -0.1481992 1.2722634
H 1.8691003 -0.9818467 -1.506949
H 0.6866119 1.0712439 1.7368351
H -1.4499246 1.5270572 0.7090297
