11

O 0.18877834 -1.9089195 1.1302583
C 0.029712636 -0.76494616 0.41461164
C -0.87523484 -0.36964315 -0.5365861
C -0.5017671 0.96421534 -0.90841097
C 0.59606594 1.3159997 -0.17855112
N 0.9166675 0.24244246 0.63520706
H -0.5085466 -2.5194879 0.867701
H -1.7001909 -0.9518801 -0.92170066
H -1.0056007 1.5800023 -1.6396701
H 1.1814979 2.2216606 -0.15456723
H 1.678618 0.19055648 1.2917084
