11

O 0.62343454 -2.26293522 -0.55246228
C 0.31433916 -1.13804321 -0.23430600
C -0.16618785 0.68522470 1.08403093
C -0.33221093 1.16079276 -0.15229987
C -0.04217040 0.05305951 -1.12980760
N 0.21287252 -0.66658856 1.05989388
H 0.39594912 -1.24255345 1.86565520
H -0.89696527 -0.21013483 -1.76213577
H -0.62268794 2.16686667 -0.41529343
H 0.79672955 0.26881421 -1.79925566
H -0.28310233 1.18549749 2.03598083
