11

C -0.51969695 1.1361626 0.4771692
C -0.12754889 -0.23241454 -0.030534035
C 1.2592577 -0.7147942 0.031208802
O 0.27879003 -1.1811246 0.94116086
C -0.9890778 -0.77498513 -1.0793879
N -1.6789382 -1.1676022 -1.9193796
H -1.5248647 1.1108909 0.9067864
H 0.18509403 1.4540213 1.251414
H -0.5084588 1.8664943 -0.33695358
H 1.6117363 -1.4450034 -0.6937402
H 2.0137074 -0.051645417 0.45225614
