10

O 1.17044009 -0.28559316 -0.65043730
C 0.89068362 -1.06540455 0.41929041
C 0.07221914 0.64668437 -0.74581008
C -0.85389723 0.24451705 0.42386669
N -0.17039371 -0.87645935 1.08060696
H 1.63938837 -1.82392325 0.62792364
H -0.38491623 0.52798693 -1.73102452
H -1.84349275 -0.07961272 0.08663180
H -1.00038962 1.05500085 1.14491638
H 0.48035845 1.65680362 -0.65596408
