12

O 1.0433245 1.1000205 -1.0129611
C 0.60102904 1.0142959 0.3182647
C -0.4471009 -0.088485636 0.44840208
O -1.4937732 0.18611644 -0.44495124
C 0.15751223 -1.4363006 0.11219752
O -0.32852304 -2.1420279 -0.7392118
H 0.23507255 1.1392832 -1.5460278
H 0.16160555 1.9584278 0.67115605
H 1.4736278 0.78993785 0.9416302
H -0.8053569 -0.13483648 1.4910712
H -1.6403522 -0.6389078 -0.9403357
H 1.0429347 -1.7475235 0.70076543
