12

O 1.37498 0.3471033 -0.5885173
C -0.96889293 0.48941392 -0.95349115
C -0.0068682367 -0.009604685 1.3344338
O 0.26435298 -1.6703357 0.76292
C 0.16979928 0.72785795 0.03247107
O -0.77196676 0.08955905 -2.0775871
H 0.15568373 1.8006786 0.3012463
H 0.72922254 -1.2516242 1.6226335
H 0.9320385 -1.4605718 0.069305755
H 1.1712526 0.29487532 -1.5395508
H -1.0672784 -0.06820449 1.613392
H -1.9823234 0.7108528 -0.5772556
