12

O 0.24873252 -1.7731509 0.32239807
C 0.62544703 -0.5473936 0.89513284
C 0.26602435 0.6712756 -1.2564933
O -1.4947433 0.34297052 0.30612472
C -0.11850992 0.5935612 0.2058697
O -0.57729894 0.6508799 -2.119917
H -1.8466979 0.4514356 -0.59529984
H 0.1584046 1.5527089 0.6748745
H 0.40867475 -0.50718534 1.971929
H -0.72082156 -1.7683853 0.32438684
H 1.343536 0.7714658 -1.4899033
H 1.7072524 -0.4381822 0.7608977
