10

N -1.3205044 -0.64076054 -1.159386
C -1.2083069 -0.74744123 0.091375604
O -0.17971061 -0.21747261 0.77473223
C 0.76612073 0.4759962 -0.0320037
C 1.8206136 0.9819753 0.8534681
N 2.6765518 1.3993711 1.5089499
H -2.1613863 -1.1095449 -1.4877092
H -1.8775897 -1.2552841 0.7908633
H 0.28777796 1.3077914 -0.5579982
H 1.1964339 -0.19463049 -0.78229165
