10

N -1.01555968 -0.98351188 -1.22255936
C -1.29450491 0.06842452 -0.58394964
O -0.43477959 0.64903142 0.26844830
C 0.81871046 -0.01858543 0.37891854
C 1.63159894 0.72173168 1.34814650
N 2.31154928 1.27105614 2.10404624
H -2.21988706 0.65054113 -0.60823774
H 0.67718295 -1.04905853 0.71913019
H -1.79644243 -1.26318440 -1.81204428
H 1.32213213 -0.04644451 -0.59189836
