12

N 2.166016 0.39330158 -0.6971621
C 0.8848863 0.16445638 -0.2823987
N 0.704972 -0.84234166 0.5856168
C -0.54038876 -1.0246495 1.0074805
C -1.6074858 -0.24059755 0.58706063
C -1.2915213 0.76602805 -0.32034767
N -0.061029498 0.98273784 -0.7684678
H 2.2869954 0.9633159 -1.5182941
H 2.8321013 -0.34406167 -0.5313648
H -0.69213146 -1.8414022 1.7111166
H -2.6188471 -0.40333623 0.938604
H -2.0635672 1.426549 -0.7118433
