12

N 1.81702833 0.37044559 -0.52671666
C 0.49645529 -0.08998386 -0.39363491
N 0.37573463 -1.53710347 -0.07455906
C -0.54163869 -1.28692497 0.78897491
C -0.64583824 0.21303472 0.66040260
C -1.33723316 0.61624051 -0.62490562
N -0.42228887 0.35360118 -1.48227124
H 1.86858808 1.36761750 -0.69943669
H 2.39613127 0.11551628 0.26450197
H -1.07644440 -2.01292116 1.39633483
H -0.60633573 0.87165006 1.53087221
H -2.32415863 1.01882756 -0.83956227
