12

N 0.5560946 -0.99374825 -1.101202
C 0.5191988 0.24621373 -0.2816466
N 1.7809931 0.73078316 0.1013505
C -0.6927194 -0.36015433 0.53763473
C -0.41868833 -1.4882152 -0.42655048
C -1.3736964 0.8061005 -0.14701048
N -0.40011388 1.2873616 -0.82649785
H -2.3914514 1.1877902 -0.12125325
H 1.7222679 1.5497001 0.69529396
H 2.353284 0.016254308 0.5352949
H -0.88896996 -2.456309 -0.58018404
H -0.766199 -0.5257768 1.6147707
