9

N 2.35896260 -1.06494354 -0.11222152
C -1.16487751 -0.32890643 -0.62822185
C 1.41287830 -0.42508945 -0.28046543
C 0.18405929 0.31739950 -0.53471610
N -0.67422225 0.40419884 0.65715785
H 0.35542672 1.26048426 -1.05090968
H -0.31352205 -0.06403398 1.48514236
H -1.11636604 1.29446710 0.85063986
H -1.04233925 -1.39357620 -0.38640526
