9

O 0.8150605 -1.6736797 -0.76474506
C 0.27070874 -0.5613489 -0.24772133
N -0.30662435 -0.51221395 0.9412291
N -0.68947405 0.75702715 1.0237178
N -0.40859666 1.525063 -0.005568838
C 0.21302965 0.7077733 -0.8493315
H 0.69683397 -2.388164 -0.12494082
H -1.1693596 1.1078595 1.8362716
H 0.5784216 1.037684 -1.8089107
