9

O -1.8270818 0.5437563 0.64563996
C 0.37389508 1.0041362 -0.3453431
N -0.16263036 -1.0691949 0.2701857
N 1.4249898 0.24161083 -0.63224846
N 1.0550206 -0.95919746 -0.25212184
C -0.61179644 0.17553104 0.21737087
H 0.36212185 2.0641491 -0.5413928
H 1.6617781 -1.7574733 -0.3448615
H -2.2762969 -0.24331778 0.9827712
