9

O -0.87644990 1.45774642 1.07590005
C -0.29407800 0.48286967 0.36429548
N -0.17334861 -0.76449029 0.79254749
N 0.44974591 -1.35859436 -0.22055271
N 0.73912123 -0.60481250 -1.25563185
C 0.27393764 0.59393536 -0.91626843
H 0.69065369 -2.33584145 -0.18971113
H -1.16854071 1.08025304 1.91680373
H 0.35895855 1.44893450 -1.56738237
