9

O -1.2520493 0.033196047 -1.6174875
C -0.5108617 -0.13176233 -0.5144774
N -0.67501676 -1.1468092 0.28734192
O 0.25626728 -0.97668827 1.2938193
C 0.9483217 0.14231378 1.056156
C 0.5253154 0.7448981 -0.0771896
H -1.8766116 -0.7050165 -1.6688626
H 1.7120742 0.38461363 1.780761
H 0.87256074 1.6552547 -0.54006124
