9

O -1.05214054 1.39222493 -0.71732424
C -0.24764642 -0.52267203 -0.06804198
N -1.28787596 -0.09114340 -0.65963086
O -0.01779352 -1.80579164 0.20019410
C 0.72402764 0.54439140 0.31482118
C 0.05517844 1.79413339 -0.18932171
H -0.76662793 -2.32776283 -0.12781618
H 0.88496001 0.60429513 1.39711673
H 1.70791823 0.41232501 -0.14999716
