10

O -0.23861744 -0.17139865 2.0268958
C -0.106920846 -0.036096513 0.68957776
C 0.7018466 -0.61526996 -0.26086614
C 0.29435602 0.010137571 -1.4639887
N -0.6725567 0.8903108 -1.278572
N -0.9039333 0.8452977 0.054112867
H 0.39240915 -0.8314051 2.338228
H 1.4634304 -1.3667222 -0.1109034
H 0.67969733 -0.15756768 -2.4605699
H -1.6097113 1.432714 0.46608558
