10

O -0.13568866 -1.7998974 0.80034757
C 0.35508367 -0.6047779 0.29469278
C -0.053536717 0.9685377 -1.2085344
C 0.36675882 -0.36329123 -1.1707965
N -0.43169844 1.5002044 -0.014023348
N -0.32392994 0.58493465 0.87626487
H -0.16196875 1.6031975 -2.0800323
H -0.5744322 -2.249886 0.066001035
H -0.45501563 0.82269955 1.8508238
H 1.4144278 -0.4617213 0.5852565
