10

O -0.07176461 -0.54443771 1.89658526
C 0.34550565 -0.03125084 0.67700352
C 0.75008723 -0.94805520 -0.41930596
C 0.14920245 -0.31472244 -1.51002494
N -0.64597343 0.74796414 -1.20848726
N -0.65877973 0.88124231 0.06588271
H -0.19486289 -1.49443917 1.76776567
H 1.23381018 0.61750227 0.80791155
H 0.20141396 -0.60316007 -2.55316292
H -1.10863890 1.68935667 0.47583224
