11

N -0.903867 0.39916435 2.7296107
C 0.5319564 0.897215 -0.7704217
C -0.2489849 -1.0343591 -0.7474291
C -0.6251073 0.27211332 1.5466589
C -0.29772118 0.118856095 0.21840988
O 0.565234 -0.25207654 -1.6378748
H 0.029194921 1.7490498 -1.2477837
H 1.5357434 1.2065915 -0.4495162
H -1.2069073 -1.3084146 -1.2083956
H 0.25643995 -1.9484335 -0.40891457
H 0.3640191 -0.099706426 1.9756564
