10

O -1.0885112 -1.5545264 1.0137938
C 0.018768813 -0.6620433 -1.1067785
C 0.5568301 0.23169515 0.03504162
C -0.5155252 -0.8754275 0.2284893
O 0.19547716 1.5912657 -0.078053236
C -0.71838844 1.4417927 0.94451404
H 1.5450765 0.050799586 0.45408666
H -0.08322004 1.2879869 1.8616886
H 0.68437976 -1.4044719 -1.5387175
H -0.5948872 -0.1070709 -1.8140649
