10

O 1.7547867 -1.1287926 1.011211
C 0.8041608 -0.6108541 0.50181335
C 0.50510365 -0.08644453 -0.93057376
C -0.72034234 0.58519274 -0.30760303
O -1.5224838 -0.4626288 0.1993866
C -0.47225755 0.02637426 1.0350851
H 0.290181 -0.8227703 -1.7062441
H 1.2937067 0.59600025 -1.2620636
H -1.1959424 1.5243905 -0.56422544
H -0.73691267 0.37953275 2.0232136
