10

O 1.0364089 0.21980286 -1.0281587
C 0.2659541 -0.5078134 1.2520018
C -0.92659855 -0.43005067 0.38591674
C 0.60948104 0.30967012 -2.2527099
O -2.0011272 -0.85646445 0.0792703
C 0.17332241 0.50432426 0.093510956
H 0.25237796 -0.12550357 2.269332
H 0.110593095 1.5648848 0.31392652
H -0.45213506 0.6739315 -2.1852322
H 0.93172336 -1.3527815 1.0721427
