11

C -0.21134399 0.024349285 -0.48426366
C -0.9065753 0.861077 0.41948697
N 0.7924489 -0.53176576 0.36965013
C 0.6703861 -0.054059874 1.6053184
C -0.31825343 -0.2875245 -1.79528
O -0.3161121 0.77152205 1.675098
H 1.276174 -0.2892163 2.466157
H 0.3726739 -0.9779194 -2.2675908
H -1.1027684 0.15388496 -2.3968878
H -1.7484689 1.522329 0.33788958
H 1.4918394 -1.1926764 0.070422314
