9

O 0.2549576 1.3599179 0.9638792
C 0.19716431 -0.35952663 -0.4054577
C -1.0516932 0.998798 0.8563505
O 0.4877903 -1.3798715 -1.2271622
C 1.0070747 0.5700371 0.14010285
N -1.1064595 -0.074324735 -0.0025042295
H -1.4958551 -0.16706303 1.1865983
H 2.0549614 0.8005176 0.030652644
H -0.3479407 -1.7484848 -1.5424594
