9

O -0.9330051 -1.1343141 -1.9681373
C -0.40783024 -0.62095904 -1.0177013
N -0.8964884 0.32057032 -0.14207934
C 0.06325194 0.62747264 0.81931853
C 1.1302376 -0.123037666 0.5273891
O 0.869832 -0.8891577 -0.58419424
H -1.8212003 0.7050777 -0.22476587
H -0.10643702 1.3423382 1.6083453
H 2.1016395 -0.22799042 0.98182493
