12

O 0.47277882 1.05817241 1.98209410
C -0.47749424 -1.02742427 -0.52834457
C 0.75000147 0.22436185 0.93194937
O 0.77047309 0.87741682 -0.31547977
C -0.25962925 0.35241526 -1.13338459
O -0.22269926 -0.79094201 0.84440412
H -1.49708533 -1.40635068 -0.63429835
H 0.23418626 -1.75944826 -0.93128592
H -0.44345990 1.35767814 1.88867776
H 1.74553301 -0.19124013 1.13129726
H -1.16366471 0.96971972 -1.06578529
H 0.09105980 0.33564104 -2.16984415
