12

O -1.2614169 -0.6601413 1.2367824
C 0.12742831 -0.48573756 1.1826984
C 0.582728 0.70402193 0.34305775
O 0.8538484 0.40102732 -1.046173
C -0.14894745 0.024850566 -1.8260256
O -1.2881235 -0.18848652 -1.4851301
H -1.5807709 -0.6357618 0.31950247
H 0.66077876 -1.3856628 0.8332476
H 0.45497936 -0.29533187 2.2112439
H 1.548953 1.0757102 0.6913682
H -0.16357635 1.5016328 0.39778185
H 0.21411905 -0.056121066 -2.8583539
