12

O 0.033846475 -0.71020913 -1.1419466
C 1.0742354 -0.31190798 -0.24981895
C -1.1481367 -0.67335063 -0.47943088
O -1.3421407 -1.319706 0.6228157
C 0.5209211 1.0095087 0.31299895
O -0.8821899 0.8109142 0.43561098
H -1.9677163 -0.49890652 -1.1863185
H 0.6872038 1.8336258 -0.3875696
H 1.9850585 -0.1887838 -0.8340137
H 0.9494811 1.2702017 1.2849332
H 1.2114085 -1.0680964 0.530104
H -1.1219714 -0.15329011 1.0926353
