12

O 0.06454358 1.208369 1.9513135
C 0.0869243 -1.1394573 -0.50678444
C 0.6179863 0.61965764 0.84586495
O 0.13869545 1.1430575 -0.37040484
C -0.5395893 0.12331503 -1.0815735
O 0.3360775 -0.7605801 0.8347289
H -0.8733886 0.9684222 1.9764618
H 1.696842 0.80728114 0.9123137
H 1.0260998 -1.3896556 -1.0167454
H -0.359635 0.26425758 -2.1517437
H -1.6180944 0.1632928 -0.8862709
H -0.57646173 -2.0079596 -0.50715977
