10

O -0.5671968 -1.8769761 -0.7879824
C 0.21195443 -0.98787636 -0.047098443
C -0.3170375 0.42007586 -0.14508687
O -1.2958958 0.6907944 -0.80822444
C 0.40380222 1.5236226 0.6099226
O 1.3775581 1.3122538 1.2832133
H -1.2631662 -1.3547283 -1.2077825
H 0.24268322 -1.2705855 1.0159012
H 1.2580191 -0.98323774 -0.39297324
H -0.050720736 2.5266576 0.48011085
