10

O 0.33442924 -1.33103563 -1.31871924
C 0.01656927 -0.18546236 0.87056650
C -0.47911824 -0.57437867 -0.52695340
O -0.49654349 0.84553913 -0.89285260
C -0.02516987 1.17191356 0.38525529
O 1.22645218 0.55501192 0.60431724
H -1.48983437 -0.98266607 -0.57431370
H -0.10151591 -0.65930764 1.83696295
H 1.23267032 -0.98939865 -1.19442724
H -0.21793909 2.14978467 0.81016427
