11

O 1.2546034 -0.65684396 -2.1068084
C 0.62299854 -0.34817868 -1.1174983
N 1.1418487 0.033166472 0.099990085
C 0.12822065 0.33935672 1.0823075
C -1.1398075 0.09213708 0.30713207
C -0.8598032 -0.2937851 -0.93672335
H 2.1339824 0.086162716 0.25996894
H 0.190048 1.3783451 1.432363
H 0.19449522 -0.31351733 1.9629065
H -2.119448 0.22525963 0.7512449
H -1.5471385 -0.54210275 -1.7348831
