11

O -0.29463547 0.6553239 1.8269181
C 0.99371904 0.44948035 -0.39010903
N 0.11108489 -0.761845 1.780969
C -1.0279613 -0.1909166 -0.5315242
C 0.14813477 0.2137475 -1.4055864
C -0.030543072 0.04099036 0.6167241
H -1.877291 0.49804318 -0.53168386
H -1.382628 -1.2216473 -0.6314958
H 1.095292 -0.74351406 2.0603447
H 2.019995 0.79155594 -0.31164864
H 0.24483284 0.26878157 -2.4829082
