11

O 0.55385494 -1.87445965 0.18312567
C 0.70021616 0.65013377 0.65476604
N 0.92078558 -1.28933970 -1.11998007
C 0.25171719 -0.55588974 -0.10289211
C -1.15348924 0.06254787 -0.20303174
C -0.50941335 1.22087992 0.54153045
H 1.64393381 0.93822706 1.10511405
H -0.91284798 2.17770180 0.84931919
H 1.92413150 -1.10835999 -1.03283792
H -1.92312421 -0.48523867 0.34798410
H -1.49576469 0.26379722 -1.22309780
