13

C 0.20515420 -1.19289167 1.26056933
C 0.08030694 0.22997683 0.72804602
N -0.20240028 0.28131806 -0.59600193
O 0.21947063 1.19851423 1.45167305
C -0.41571291 1.52381611 -1.30645644
O 0.31311135 -2.18305548 0.25486544
H 1.04467342 -1.20806939 1.96656725
H -0.30138706 2.33897593 -0.59081775
H -0.70800161 -1.41850432 1.82331091
H 0.31765033 1.64211443 -2.10952152
H -1.42365452 1.55885724 -1.73238551
H -0.34445111 -0.60293212 -1.06421999
H 1.21524081 -2.16811998 -0.08562872
