13

C 0.6359821 0.6367432 -1.5055802
C -0.90399224 -0.14433844 2.0279136
N -0.3338845 -0.8831417 0.17756972
O -0.083485276 1.2141353 0.71703833
C 0.04082061 0.3103021 -0.15108132
O 0.89870447 -0.49213433 -2.3090587
H -1.6148164 -0.95939535 1.977714
H -0.09127975 1.2462718 -2.0499911
H 1.5235933 1.2646198 -1.3422607
H -0.36259905 -1.6152455 -0.5260247
H -1.3517052 0.7928115 2.3437045
H 1.628226 -0.9800283 -1.9056551
H 0.014435764 -0.3906006 2.545712
