10

O 0.1877832 -1.1677494 1.3855677
C -0.620037 0.24722388 -0.8841135
N 1.1487147 0.7124242 0.50611526
C 1.0407598 -0.3110862 1.4100391
C -1.6567515 -0.35056433 -1.4008666
N 0.34343874 0.955792 -0.57080966
H 1.8418858 -0.24886087 2.164172
H -1.5233831 -1.1175604 -2.154374
H 1.8910533 1.3875022 0.5969734
H -2.6534638 -0.10712109 -1.052704
