10

O 1.34837580 -0.77284704 0.95041531
C -1.08234452 -0.05995582 -0.22838088
N 0.95474674 0.97338486 -0.47352607
C 1.74077701 0.18332459 0.32288293
C -1.99516778 -0.90893746 0.15259857
N -0.38370045 0.83737212 -0.71336810
H 1.36041836 1.75394497 -0.96465593
H -2.54092694 -0.74258490 1.07367999
H -2.18641479 -1.80122954 -0.43142447
H 2.78423653 0.53752821 0.31177858
