10

O -1.0358104 1.0551776 -0.32553625
C 0.089094006 1.3415983 0.3276748
N -1.7517568 -1.1906779 -1.1695753
C -1.037309 -0.38546816 -0.6340545
C 0.059579138 -1.2035545 -0.22206417
N 0.94248694 0.45347396 0.6617037
H 0.19470921 2.408951 0.5304986
H -0.045621023 -1.8302187 0.6554315
H 1.7694589 0.83183235 1.1244465
H 0.8151689 -1.4811138 -0.948525
