11

C 1.0103184 -0.80939347 -1.1416057
C 0.21733531 -0.16231482 -0.059727833
C -0.8832325 0.6326165 -0.05228299
C -1.0928085 0.8828579 1.3304954
N -0.20075569 0.2928405 2.0750127
O 0.6305967 -0.37044802 1.2003883
H 1.011307 -1.8982741 -1.0296979
H 0.5828426 -0.55842924 -2.1136808
H 2.0505579 -0.4691772 -1.1183269
H -1.4598198 0.9851895 -0.8954635
H -1.8663416 1.4745321 1.8048898
