11

C -0.31795087 1.0088309 -0.47767672
C 0.07697729 -0.21996845 1.8362389
C -0.010763531 0.025629615 -1.5258204
C -0.006989975 0.0340527 0.38651392
N 0.0015403543 -0.061110802 -2.768485
O 0.30862904 -0.96321654 -0.5451806
H 0.2930448 -0.9927866 -3.0700147
H -0.2121779 0.67607987 2.3873901
H 1.100551 -0.49650636 2.1092815
H -0.64693433 2.03415 -0.44640526
H -0.5859258 -1.0451545 2.1141586
