11

C 1.7117649 -0.3418972 0.31158558
C -0.36332873 0.03782105 -0.10565314
C -1.6423378 -0.11098808 -0.85096043
C 1.221131 0.5387638 1.2064389
N -0.116321295 0.773153 0.92633486
O 0.7023955 -0.6751131 -0.5430498
H -1.5434612 0.25590658 -1.8785541
H -2.4143388 0.4673308 -0.34096357
H -1.9490368 -1.1593195 -0.8970955
H 2.6686268 -0.8086 0.14234416
H 1.7249063 1.0229425 2.029573
