11

C -0.5451126 -0.1344965 1.0430236
C -0.7248621 0.12927745 -1.1648932
C -0.9308969 1.3273835 -0.57584774
C 1.1178803 -0.90511364 0.7638963
N -0.48524103 -0.79083335 -0.14557229
O -0.743067 1.2070763 0.759706
H 1.6020916 -1.2086833 -0.16996124
H -1.2278874 2.2964873 -0.9431715
H -0.7606591 -0.14979313 -2.208081
H 1.6410476 -0.04198445 1.1756493
H 1.0567063 -1.7293203 1.4652518
