9

N 1.32284616 0.24997618 -2.48856594
C -0.24407891 -0.41353051 -0.75527959
C -0.10312573 0.10207899 0.60086624
N 0.59824016 -0.05567143 -1.68162632
N -0.83418630 -0.15501061 1.60530844
O 0.94802128 0.94487970 0.72780996
H -1.03140969 -1.09036425 -1.04632928
H -1.58738457 -0.79947190 1.37923172
H 0.93107777 1.21711357 1.65858473
