9

N 0.9563541 1.0822283 -0.10715692
C -0.71133775 -0.76694643 0.16282399
C 0.0809564 0.36448926 0.5478325
N -0.5934057 -1.2259592 -1.0633976
N -0.4769216 -1.6056283 -2.1216843
O 0.008088832 0.85740566 1.7411296
H -1.3994572 -1.2710996 0.82561785
H 0.8923755 1.5983362 1.0863836
H 1.2433472 0.9671739 -1.0715488
