9

N -0.8891175 -0.57621974 -1.224803
C 0.23292689 -0.14750116 -0.55492574
C -0.052040383 0.36884373 0.7855572
N 0.9603832 0.8043441 1.4846475
N 1.8383408 1.1760633 2.0874007
O 1.3462712 -0.15921167 -1.0460974
H -0.70386744 -1.0922225 -2.0723045
H -1.7073237 -0.84607345 -0.7036028
H -1.0255729 0.47197714 1.244128
