9

N -1.5034457 0.48405066 -0.83318883
C -0.205208 0.4712391 -0.7327023
C 0.4362567 -0.22615366 0.37500653
N 1.6789191 -0.32341164 0.611184
N -2.6262047 0.49892953 -0.92708606
O -0.457486 -0.81298155 1.2045816
H 0.34897602 0.9885382 -1.4995043
H 0.08569774 -1.2396511 1.8854961
H 2.242495 0.1594404 -0.08378706
