9

O -1.1909419 -0.92344147 -1.6314495
C 0.4223684 -0.16993737 0.38987833
N -1.2669225 0.22875547 -1.2962297
O -0.56098706 1.9571952 0.10816539
C 1.1913266 -1.0898191 0.89734286
C -0.40787983 0.6513877 -0.209234
H 2.1880624 -1.2691978 0.4991303
H 0.8572795 -1.6996508 1.7349375
H -1.2323058 2.3147085 -0.49254134
