9

O -1.2549193 0.03735945 -1.615714
C -0.51134324 -0.13075843 -0.51282364
N -0.6781591 -1.1481637 0.28717396
O 0.25675473 -0.9792505 1.2959365
C 0.95004034 0.14065239 1.055627
C 0.5262491 0.7450244 -0.07698235
H -1.8774725 -0.7005254 -1.6701063
H 1.7149458 0.38256896 1.7789016
H 0.8739042 1.6530927 -0.54201305
