11

C -1.2871149 0.819624 -0.5073781
C 0.09490311 0.22764972 -0.46917439
C 0.4720183 -0.7588003 0.5503579
O 0.21328434 -1.1511891 -0.7897976
C 1.8507854 -0.8693208 1.0012716
N 2.9381058 -0.9460642 1.3779594
H -1.595246 0.998444 -1.541345
H -0.26832974 -1.0801381 1.2804599
H -2.0123763 0.14505586 -0.04408299
H -1.304282 1.7761793 0.025063457
H 0.8982517 0.8385599 -0.8833338
