11

C -0.43785408 -1.3805745 -0.5692209
C -0.5136504 0.015138517 0.03655934
C 0.8414706 0.6469494 0.22569369
O 1.8957999 0.14375186 -0.05849062
C 0.8136568 2.0105379 0.8203355
N 0.7779746 3.0659308 1.2818456
H 0.049980186 -1.3589704 -1.5481598
H -1.444394 -1.7883002 -0.6917995
H 0.1354304 -2.0572045 0.0705703
H -1.0096929 0.00600608 1.017209
H -1.1087209 0.6967354 -0.5845426
