11

N 1.52829141 0.91638967 0.82036629
C 0.37099840 0.30649164 0.44997292
N 0.37062385 -0.89923890 -0.38623897
N -0.31762006 -0.39991879 -1.64019884
C -1.07319248 -0.69837397 -0.44345791
C -0.96611607 0.45546498 0.51200124
H 2.34083324 0.32074838 0.85361530
H 1.46668739 1.59779572 1.56254644
H -1.65498325 1.18617012 0.90522432
H -0.31482433 -1.23707153 -2.22889257
H -1.75069845 -1.54845714 -0.40493802
