11

N -1.5524542 0.24592566 1.2976426
C 0.46314377 0.71816087 -0.91118586
O 0.9428126 -1.1473963 0.06674955
C 0.36742678 -0.7634012 -1.0884553
C -0.30627567 0.3826181 1.2346619
O 0.1576367 1.2621554 0.19290653
H 0.93679446 -0.99232167 -2.015025
H 1.0006459 1.407191 -1.5660414
H -1.8148125 -0.2738067 2.1334057
H -0.69501054 -1.0392765 -1.2811359
H 0.5000931 0.20015115 1.9364771
