10

O -1.0363815 -0.75932807 -0.8558553
C 0.3878584 -0.20197473 0.92778987
C 1.1398407 0.13437599 -0.37656197
C -0.1324118 0.7396613 -1.0394682
O 2.2788243 0.07047838 -0.7242788
C -0.86055493 0.23466541 0.17143376
H -1.0963418 -0.112067185 -1.7271711
H 0.68286365 0.50009364 1.7135191
H -1.779895 0.6202251 0.6041274
H 0.41619802 -1.2261297 1.3064651
