10

O 1.51011721 -0.01580910 0.06403285
C -0.73800877 -0.60382456 0.36418403
C 0.31189933 -0.35039546 -0.69996636
C 0.30013363 1.16652390 -0.62510427
O -1.21304063 1.68690614 1.32409062
C -0.65676131 0.92790092 0.58485312
H 0.49992740 -0.97009581 -1.57302133
H 2.18505539 0.30587671 -0.55945952
H -1.71160914 -0.86424176 -0.06266039
H -0.48771320 -1.28284091 1.18305083
