10

O -0.40929794 0.32518417 2.4077098
C -0.27641338 0.26359752 1.2200413
C -0.040765356 0.18929797 -0.8200704
C -0.5570674 -0.8387309 0.16762298
O 1.3894324 0.2597184 -0.53556335
C 0.093077675 1.3447875 0.156514
H -0.2866739 0.23964989 -1.8777101
H -1.6362065 -0.9985095 0.07907609
H 1.7587987 1.011412 -1.0318408
H -0.034884326 -1.796407 0.23422067
