12

O -1.08570125 0.33616749 0.34805938
C 0.06273409 0.44482485 1.17182132
C 1.18160031 0.10327644 0.19971012
O 0.56428624 -0.85358046 -0.64047754
C -0.82682422 -0.63703934 -0.63166931
O -1.31794790 -0.23798237 -1.84666789
H -1.32920930 -1.58476949 -0.40615080
H 2.05492198 -0.35828890 0.66842035
H 0.01322008 -0.27862577 1.99520684
H 0.11079841 1.45999037 1.57068646
H 1.49736629 0.98399628 -0.37575180
H -0.92524473 0.62203064 -2.05318705
