12

O 0.45060185 -1.0678536 -0.3374562
C -0.90090686 -0.68947124 -0.44884267
C 1.1846405 0.012135259 0.20786794
O -1.0338873 0.55500096 0.18961038
C 0.11731174 0.7617709 0.9904105
O -1.3339462 -0.6124334 -1.7462295
H -1.5219339 -1.4581927 0.025324522
H 0.29528317 1.8356707 1.0742556
H 1.9900972 -0.39279467 0.82649046
H -0.0268691 0.32752755 1.987627
H -0.83304894 0.09233642 -2.180844
H 1.6126579 0.63630384 -0.58821416
