11

C -0.14651138 -0.7176712 0.64214087
N -0.052286867 -0.14743249 -0.637254
C -0.2236595 -0.77929676 -1.7846587
C 0.08845205 0.294342 1.5275085
N 0.23661229 1.1562732 -0.5450876
N 0.30924752 1.3875371 0.7824911
H -0.3722155 -1.8454663 -1.7685714
H 0.5092022 2.3253446 1.0835817
H 0.11524886 0.29782578 2.6060047
H -0.37053084 -1.7612009 0.78407454
H -0.09355875 -0.21025512 -2.6902297
