11

C -0.50613622 -0.40927028 0.72469745
N -0.23459234 -0.06605931 -0.60923352
C -0.96612517 -0.39121821 -1.66008555
C 0.49532682 0.14228855 1.47042463
N 0.88905430 0.65746259 -0.68366586
N 1.29949156 0.76665130 0.59728814
H 0.67786159 0.12253617 2.53352159
H -1.80973505 -1.04487284 -1.51829993
H -1.36820616 -0.99415928 0.99677167
H -0.61430123 -0.07525932 -2.62816784
H 2.13736225 1.29190048 0.77674940
