10

O -0.54260244 0.82076484 -0.93878742
C 0.55593873 -0.06417455 0.89577681
C -0.02557975 -0.38162121 -1.25583840
C -0.54819721 0.89234862 0.52272630
N 0.61777456 -0.87145313 -0.20951917
H 1.16906321 -1.71595788 -0.26068858
H 0.61388843 -0.53731018 1.86856937
H 0.09732583 -0.67295881 -2.28604412
H -1.55359740 0.59035031 0.87728452
H -0.38401382 1.94001198 0.78652073
