10

O -0.93694127 -0.5692662 1.8303995
C 0.358483 0.102422066 -1.2984421
C -0.57215095 -0.39607114 0.6745741
C 0.45878842 0.5348549 1.1249952
N -0.6162773 -0.6730542 -0.6145391
H 0.7069897 -0.36210856 -2.2211704
H 0.118928276 1.1597159 -1.372282
H 0.16372037 1.5010701 1.5234874
H 1.4433728 0.15093929 1.3641002
H -1.124913 -1.4485021 -1.0111228
