10

O 2.0083473 1.1465853 0.43157622
C 0.9619492 0.5997262 0.20484352
C 0.43194944 -0.8489292 0.23373793
C -0.9146698 -0.24263504 -0.23633416
N -0.26385373 1.0648701 -0.19901316
H 0.9238144 -1.5175394 -0.47459233
H 0.42511573 -1.2989006 1.2280468
H -1.2358087 -0.5482013 -1.2358047
H -1.7436688 -0.34721547 0.4680942
H -0.5931749 1.9922394 -0.42055428
