10

O -0.7405046 0.60455126 -0.967246
C -0.6491634 0.85192907 0.4720729
C -0.054862373 -0.5310534 -1.1993296
C 0.6239679 0.13375865 0.8416502
N 0.7373914 -0.7823337 -0.1708277
H 0.832434 -0.20224243 1.8502066
H -1.5607258 0.4409654 0.94946885
H 0.037963185 -0.9227664 -2.1989553
H 1.416704 -1.5294236 -0.1816368
H -0.64320433 1.9366152 0.6045972
