10

O -0.12434892 -1.183788 -1.0833597
C -0.06780922 -0.48147145 0.114273764
C -1.3114874 0.37734908 0.33454856
O -1.4800448 1.0132343 1.3452331
C 1.1421847 0.4399615 0.14420456
O 1.9251328 0.44771746 -0.7732192
H 0.6734649 -0.9306653 -1.578563
H 0.01883872 -1.153153 0.98364633
H -2.021333 0.3808114 -0.5179153
H 1.2454023 1.0900041 1.0311506
