11

O -1.49412432 -0.17206236 -2.14675537
C 1.35663770 0.37324998 1.02297741
N 0.03084651 -0.05015271 -2.07113905
C 0.08018711 0.07862977 1.28343146
C -1.01816175 -0.01126860 0.31442765
C -0.84244402 -0.05670398 -0.99381812
H 2.08829191 0.38867302 1.82299397
H 1.71043837 0.62156485 0.02461118
H -0.21062155 -0.11691327 2.31465921
H -2.04438933 -0.04611767 0.66770930
H 0.34333926 -1.00889891 -2.23909797
