11

O -2.2738287 -1.1422889 0.11948854
C 1.233093 0.53549296 -0.6959038
N -0.8333057 -0.8950421 -1.063186
C -0.54791784 0.4238391 0.9984549
C 0.8177387 0.6625095 0.58586866
C -1.2073913 -0.4367509 0.1910119
H -0.96991163 0.7657753 1.9337895
H 1.5499271 0.87400407 1.3670632
H 0.552728 0.6112222 -1.5352337
H 2.2898104 0.48283198 -0.9462471
H -0.6109424 -1.8815931 -0.95510626
