11

O -2.132309 0.78544235 -1.3064877
C 1.6085908 -0.5896523 0.30167863
N -1.0172071 -0.14169084 -1.7995269
C -0.5267473 0.6858072 0.62277675
C -1.0737677 0.48153716 -0.5619133
C 0.72313637 0.056619447 1.0647427
H 0.92167073 0.1479221 2.131741
H 1.4978231 -0.68263274 -0.7765864
H -1.0533459 1.3610911 1.2904975
H 2.491119 -1.0355109 0.746579
H -1.4389633 -1.0689327 -1.7135011
