11

O -1.10394534 0.47707570 -0.85630967
C -1.56163864 -0.19334818 -1.87826443
O 0.01037073 -2.22549348 0.43595068
C 0.19817321 -1.06254995 0.58210251
C 0.18528215 0.19472966 -0.29123558
C 0.46774717 0.90084373 1.03433649
O 0.51376292 -0.37825496 1.72096111
H -0.73319666 -0.88942157 -2.19437771
H -0.36092237 1.50963605 1.39743712
H 0.96028383 0.24514577 -1.06250325
H 1.42408265 1.42163722 1.11190274
