11

O 0.1345791 -0.038512107 1.830066
C 0.121786006 0.2679286 -0.26542366
O 1.0969162 -1.8362788 0.75354946
C -0.6101476 -1.0228235 -2.1413846
C 0.5728981 -0.77121663 0.7642912
C -0.40648764 0.99828196 0.9686897
O -0.89590317 -0.2204116 -1.1525359
H 0.04634146 1.9667797 1.1895468
H 0.9224369 0.75344026 -0.8322215
H -1.4946307 1.0307138 1.0323781
H 0.51221126 -1.1279018 -2.1469557
