10

O -0.08947554 -1.2779748 -1.7797409
C 0.7768072 0.873213 0.73771554
N 1.1835244 -0.013560596 -0.20489568
C -0.6163267 0.857076 0.8127068
C -0.039896455 -0.5838079 -0.6218763
N -1.130647 -0.044609364 -0.030580789
H -1.0258738 -1.4603499 -1.9416734
H 0.6985755 -1.1937875 0.21508208
H -1.2520033 1.4373918 1.4697939
H 1.4953158 1.4064093 1.3434687
