12

N -1.62198451 1.84404530 1.61630919
C -0.84713487 1.37433536 0.90271803
C 0.17181702 0.78444320 0.01534157
C -0.41055993 -0.26115676 -0.96009069
N 1.11883551 -0.04404521 0.76396925
C 0.95936870 -1.38832256 0.64003176
N 0.02655857 -1.49972197 -0.32075620
H -1.49882635 -0.20006291 -1.03499355
H 0.02829711 -0.14269640 -1.95612695
H 0.67501884 1.59680796 -0.52047128
H -0.21059856 -2.39903465 -0.70434764
H 1.60920838 0.33540856 1.55841628
