12

N -0.2770182 0.9312596 -0.81769645
C -0.38686273 -0.84731317 0.65798956
C 1.7327142 0.5066249 0.500253
C -0.69720626 -0.15765205 -1.5171272
N -0.7518427 -1.238987 -0.7222526
C 0.25977534 0.54761255 0.49663946
N 2.8887615 0.48422033 0.49406075
H -1.7406385 -0.8577174 -1.434763
H -0.06618312 1.2501422 1.2705086
H 0.04213445 1.7643831 -1.288777
H -1.2909139 -0.79036236 1.2731704
H 0.28728005 -1.5922107 1.0879943
