12

N 1.2685908 0.3259201 0.34904918
C -0.78269017 0.3034977 1.6482173
C 1.5865377 -0.75799525 -0.4071975
C -0.14823726 0.6940956 0.37598482
N 0.43567327 -1.0380672 -1.0418067
C -0.67371505 -0.11118068 -0.83203566
N -1.2552557 0.010086922 2.6585755
H 0.40523472 -1.7359269 -1.7658333
H 1.8862787 0.62612426 1.0865693
H -1.6077499 -0.63278407 -0.61028016
H -0.82172006 0.5454598 -1.6955369
H -0.29294732 1.7707695 0.23429397
