12

N -0.92832774 2.0792944 1.7909194
C -0.85679823 1.2753919 0.9652199
C -0.7621529 0.22454655 -0.066644
C 0.39481676 0.47415787 -1.0843536
N 1.4867536 -0.41173843 -0.6815314
C 1.0052104 -1.1960585 0.19558834
N -0.34447846 -1.0531563 0.5092527
H -1.7332555 0.13644888 -0.56145626
H 0.07325477 0.21189654 -2.0968983
H 0.72596306 1.5155832 -1.0922878
H 1.5766563 -1.9921064 0.6683234
H -0.63764215 -1.2642598 1.4538674
