9

O -1.2410688 -1.5608597 -1.415952
C -0.71070755 -0.8499971 -0.62223876
N 0.2555515 0.08516406 -0.71653897
C 0.5459405 0.6732217 0.56554234
C -0.39573273 -0.02807982 1.5272924
O -1.0661459 -0.87228435 0.7794767
H 0.67897564 0.29599246 -1.603518
H 0.35339284 1.752102 0.5958397
H 1.5797942 0.50474083 0.89009684
