11

N 1.50578033 -1.22351633 2.22561901
C 1.04717974 -0.45154744 1.49709061
C -0.87526492 -0.02236965 0.05871277
C 0.46823510 0.50034066 0.51414209
C -1.19785783 -0.19254864 -1.21357078
O 1.37937029 0.76800603 -0.51704864
H -1.57736568 -0.25310595 0.85715694
H -2.17489875 -0.57359739 -1.49301400
H 0.33020441 1.45473387 1.03307259
H -0.51159596 0.06134173 -2.01631040
H 1.60621335 -0.06773664 -0.94585003
