11

N 2.1607113 -1.4194559 1.4262602
C 0.31162012 0.33194512 0.7256943
C 1.343615 -0.6508961 1.1457721
C -1.1957986 -0.0484153 -1.2298025
C -0.78284 -0.39590853 -0.021313295
O 0.8942606 1.3997487 0.028921744
H -1.9839419 -0.60324997 -1.7286855
H -0.7805698 0.8091765 -1.7512696
H -0.102587074 0.7736616 1.6381233
H 1.3574878 1.0430872 -0.7404984
H -1.2219574 -1.2396934 0.5067973
