11

N 2.219062 -1.6894192 0.7140954
C -1.387682 -0.2920681 0.23756477
C 0.84850615 0.5224823 0.14875022
C -0.46595094 0.14828835 -0.7552803
C 1.6112039 -0.7392575 0.4528022
O 0.2957039 1.1192267 1.1692358
H -1.0989648 -0.2900298 1.2809412
H -2.3750427 -0.668742 -0.03217453
H -0.65443945 1.2030088 -1.0147693
H 1.4984993 1.1249079 -0.51549286
H -0.49089554 -0.4383973 -1.6856728
