11

C -1.0566701 0.8879352 0.300063
C 0.9679103 0.7294646 0.64520276
C -0.1510986 -1.1243811 -0.90124035
O 1.3034424 0.884073 -0.7716892
C 0.07457899 0.28710735 -0.41994393
N -1.3641549 0.704082 1.449179
H 0.8914595 1.759161 1.0055218
H -0.05582654 0.2725465 1.764206
H 0.81946206 -1.6090227 -1.0243886
H -0.76385355 -1.6740884 -0.18140948
H -0.6652496 -1.1168776 -1.8655013
