11

C -1.0738134 -0.31777054 -0.26921663
C 0.7198996 1.2353832 0.63511485
C 1.0907564 -1.2137694 -0.35157084
O 0.89046997 -0.27617478 -1.4107124
C 0.24434917 0.07516505 -0.19366746
N -2.2550614 -0.55336946 -0.39413148
H 0.40528193 1.1152898 1.675407
H -2.6637502 -1.3624662 0.06829781
H 0.33201656 2.1810005 0.24644479
H 1.8097496 1.2410407 0.5952974
H 0.5001017 -2.1243286 -0.6012633
