10

O 0.9156502 1.4718854 1.0473874
C -0.19017738 0.8740224 0.44413602
C 0.09989928 -0.58788496 0.17021754
O -0.9872842 -1.2152748 -0.6722016
C -0.11235417 -0.94883317 -1.5568593
O 0.78679913 -1.2895995 0.8595003
H -1.0821688 0.88966507 1.0946978
H -0.32124737 -1.4141251 -2.5343812
H -0.42278743 1.418215 -0.47396773
H 1.3136709 0.8019298 1.6214708
