10

O 0.45592195 1.12331961 -1.77173464
C 0.40035417 0.71447499 -0.43565274
C -0.45457422 -0.51865672 -0.28730707
O -1.07358445 -1.02454827 -1.17316173
C 0.15385915 -0.57035051 1.95865440
O -0.55274939 -1.12300393 0.99206889
H 1.41045582 0.50589658 -0.05853951
H -0.01761302 1.49582887 0.21832641
H -0.21463966 0.62521020 -2.26003286
H -0.10743025 -1.22817073 2.81737869
