11

N 1.0050753 0.5785818 -0.26426005
C -0.998002 -0.3076048 0.3767731
C 0.23070455 1.5016798 0.41467723
C 0.30251193 -0.6206105 -0.36010024
N -0.90922415 1.0879753 0.8095806
N 0.7552653 -1.6435546 -0.95064086
H -1.8671865 -0.44955498 -0.27517796
H 1.917436 0.7190809 -0.66514754
H 0.08501203 -2.4109983 -0.9139012
H -1.130242 -0.9622233 1.2464935
H 0.6086496 2.5072284 0.58170336
