11

N 0.19952975 0.88619083 -1.486008
C 0.23887794 1.5783962 -0.41182694
C -0.12803838 -0.4523306 -1.0674828
C -0.12916695 -0.43408307 0.36391687
N -0.052081376 0.8581872 0.77998245
N 0.11639594 -1.646187 0.8171463
H 0.21591197 1.1628498 1.7019072
H -0.20032725 -1.9757081 1.7201921
H 0.4583882 2.6371603 -0.3503464
H -1.0251267 -0.84019727 -1.5475072
H 0.3056368 -1.7742782 -0.51997364
