10

N 0.402941 0.79583865 -1.3033345
C 0.66713786 0.88366646 0.14931147
O 0.08126787 -0.23879725 2.1268442
C -0.2680542 -0.04418178 -1.7606376
C -0.07025775 -0.2548154 0.9071829
N -0.7497328 -1.064296 0.103587195
H -0.89953536 -0.9544377 -1.6141051
H 0.32487863 1.8612803 0.4932428
H -1.2351898 -1.8023113 0.59904057
H 1.7465444 0.8180538 0.29886806
