10

N -0.95582377 -0.56955968 -0.21832586
C -0.50275653 0.14681623 0.87990260
O -1.09121072 0.32156807 1.91844406
C 0.87599692 0.62612629 0.42605103
C 0.02035352 -0.53583878 -1.21041888
N 1.07882187 0.11377142 -0.92772274
H -1.84788088 -1.03348270 -0.26051002
H -0.15028445 -1.04483225 -2.15284044
H 0.92190956 1.71950023 0.44079005
H 1.65087465 0.25593137 1.10463018
