9

O 1.7444936 0.53888667 -1.6388748
C 0.8893375 0.35435843 -0.8169817
N 0.26913515 -0.813246 -0.4426305
C -0.67286146 -0.5560874 0.5558926
C -0.6174894 0.7578279 0.7828879
O 0.3233706 1.3364937 -0.03764344
H 0.49116924 -1.6998749 -0.86069614
H -1.2793064 -1.3275166 1.0001758
H -1.1478488 1.4091579 1.4578701
