11

N -0.43253806 -0.28068584 -0.46489784
C -0.9645713 -1.461083 -0.7576444
C -0.08213939 -1.493724 0.3051072
N 0.5972344 -1.922897 1.2493086
C -0.2889412 1.0162922 -0.6309982
C 0.6078663 1.7123418 0.25863206
O 1.2485005 1.1752818 1.1479406
H -1.6631228 -1.8761803 -1.4583592
H 1.1313807 -1.176091 1.6979009
H 0.6872905 2.8023818 0.08024887
H -0.8409597 1.5043632 -1.4272388
