10

O -0.796953 -1.73235 -0.7473991
C -0.2989723 -0.58675545 -0.23481017
C 0.8636529 0.12359695 -0.4212485
C 0.7112169 1.2355931 0.44544753
N -0.43148842 1.2131346 1.1009914
N -1.0394802 0.08520692 0.6705405
H -0.15609795 -2.0991797 -1.3696234
H 1.6894798 -0.11714315 -1.0751722
H 1.4054147 2.0492232 0.6067296
H -1.9467725 -0.17132653 1.0245445
