12

N 1.2896336 -1.5741019 -0.3137844
C 0.60331094 -0.4611163 0.15592556
N 1.1356251 0.6040012 0.80175453
C 0.38871935 0.9693067 -0.44700572
C -1.5200533 0.3036843 0.5266763
C -1.0300527 1.1782278 -0.41226906
N -0.5798515 -0.5209847 1.0136174
H -1.5691231 1.9044743 -1.0037187
H -2.496935 0.32586613 1.0011259
H 1.0403146 1.4570268 -1.1637715
H 2.0573466 -1.8159419 0.3020548
H 0.68106556 -2.3704422 -0.46060497
