11

N 1.0324304 -0.017085312 -1.552716
C 0.28055835 -0.026106963 -0.37440982
C -0.37508056 0.96849614 0.32064506
C -0.8731564 0.31499767 1.4718908
N -0.5693262 -0.9683526 1.4967058
N 0.13735124 -1.1555563 0.35823545
H 1.0262129 0.899027 -1.9835653
H 0.73018825 -0.7073257 -2.2283902
H -0.483178 2.004948 0.035530843
H -1.4539778 0.74346316 2.2778854
H 0.5479777 -2.056505 0.17818837
