11

O -0.5688298 -1.6076522 0.08251933
C 0.23814005 0.68226 0.22561711
C 0.07266484 -0.6634149 0.9060239
C -0.77230275 1.2048341 -0.7222542
O 0.8082851 0.4674863 -1.091669
H 0.8205755 1.3900919 0.8197
H -0.0526109 -1.6604452 -0.73324275
H 0.40832368 1.3569026 -1.5586002
H -1.464445 0.3865074 -0.9632806
H 1.059992 -1.0222273 1.2373109
H -0.5497925 -0.5343426 1.7978754
