11

O -1.16741663 -0.80943819 0.47210120
C -1.50165505 0.13347064 -1.00287502
C 0.74858553 0.70633999 0.11661856
C -0.18507186 -0.31316270 -0.48904942
O 1.29570177 0.26530190 1.34563267
H 1.51658106 0.95929011 -0.62851211
H 0.18337455 1.61884278 0.33361986
H -1.19690971 -0.15274258 1.18484768
H 1.83452697 -0.51559092 1.17715787
H -1.86668921 -0.69713618 -1.63042393
H 0.33897300 -1.19517486 -0.87911734
