10

C 0.6113061 -1.1877791 0.27992475
C 0.5997561 -0.0072674826 0.92765695
N -0.2594434 1.1609249 -1.0417188
N -0.6828733 0.04032346 -1.3283149
C -0.552137 -1.0553001 -0.5450956
C 0.16177203 1.2693624 0.3999937
H -1.332498 -1.8053622 -0.6158054
H 1.1260616 -2.1098971 0.5200053
H 0.9857689 1.9917607 0.41467762
H -0.657713 1.7032344 0.9886764
