9

O -2.00228504 0.48714668 -0.11051987
C 0.54931846 0.45350279 -2.34919180
N 1.33499638 -0.27465284 0.82534599
N -0.03866825 -0.12633606 0.91355192
C -0.68339229 0.22359994 -0.11160468
N -0.10889755 0.37140863 -1.36588814
H 1.62909494 -0.55727004 -0.10845893
H 1.61696512 -0.97256038 1.49927339
H -2.29713192 0.39516120 0.80749236
