9

O -1.2646363 0.98012334 1.3033515
C 0.9126605 1.9994888 -1.093258
N -0.18684217 -0.8235297 0.3727224
N 0.26025945 1.3528339 -0.34286866
C -0.3900998 0.41816065 0.44993484
N 0.80886984 -1.290466 -0.46826556
H -1.6320341 0.25636384 1.8318716
H 0.5443409 -2.2137685 -0.7817881
H 0.94748163 -0.67920655 -1.2716999
