11

C -2.1359544 -1.2186248 0.9261168
C 0.8442808 -0.63426316 -0.7080185
N -1.3234266 -0.56675816 0.38288787
C -0.29149207 0.25497797 -0.22034898
N 0.2052653 1.271213 0.67130554
H -0.5550988 1.849099 1.0117999
H 0.6385005 0.8369425 1.4817151
H 0.4717271 -1.3847097 -1.4101678
H -0.7623308 0.7579145 -1.070539
H 1.5965062 -0.013883654 -1.2020012
H 1.3120226 -1.1519076 0.13725017
