11

C 0.6743941 -0.76575536 -0.7287314
C 0.17173119 2.0473733 0.0026515634
N -0.98712516 -0.27719286 1.0013949
C 0.1869815 0.0866532 0.4141758
N -0.3902372 1.6443274 -0.96393055
H -0.11322015 -0.9416183 -1.4652711
H -1.2649252 0.30228508 1.7835981
H -1.75509 -0.41791806 0.3569442
H 1.5185 -0.28501356 -1.2270957
H 1.0016699 -1.7254707 -0.31087643
H 0.9573212 0.33233017 1.1371404
