11

N 1.968893 1.1057402 0.8940162
C -0.37088615 -0.9190038 -0.8996888
C -0.44418806 0.9200705 0.041842215
C 0.8667996 1.2153614 0.44517955
C -0.0806284 -0.6213734 0.5873242
O -0.6159124 0.46860808 -1.2659006
H 1.6152742 0.035257753 1.0975451
H 0.47153896 -1.310073 -1.4858725
H -0.9088844 -0.91704446 1.2448802
H -1.239281 1.5431046 0.46040642
H -1.2627254 -1.520648 -1.1197323
