11

N 1.9726546 0.60666156 -1.1124767
C -0.50618804 -0.095979445 -0.9594207
C -0.16198526 0.5385734 0.4278892
C -0.6879182 -0.79128534 0.9567046
C 0.85138994 0.30626783 -0.617629
O -0.88185817 -1.3293687 -0.36517355
H -0.38464135 1.5114481 0.85360235
H -1.0901245 0.26876414 -1.7970498
H -1.653718 -0.68514884 1.4631029
H -0.0090076225 -1.4036382 1.5611193
H 2.5513966 1.0737052 -0.4106686
