11

N 1.365101 -0.6668866 2.5934494
C 0.6583436 -0.67289984 1.6817005
C -0.24236248 -0.6538472 0.5151988
C -0.5331427 0.7424667 -0.07459835
C 0.24311425 0.22021395 -1.2901576
O 0.4079848 -1.0758568 -0.6833756
H -1.1195682 -1.2677958 0.74284863
H -1.5929931 0.9309755 -0.24534966
H -0.08391896 1.5800496 0.4594114
H -0.3137133 0.1612003 -2.2286224
H 1.2111552 0.70238054 -1.4705049
