10

O -1.686082 -0.5950869 -1.5302868
C -0.8064479 -0.26538432 -0.77954674
C -0.37559536 -0.61810815 0.66032076
C 0.7717227 0.3996362 0.44616568
N 0.24173608 0.60981894 -0.89867693
H -1.10959 -0.35203475 1.4236107
H -0.06749145 -1.6568648 0.7876472
H 0.7298372 1.2869121 1.0830204
H 1.780235 -0.025213368 0.4652866
H 0.52167577 1.2163248 -1.6575414
