10

O -0.29125798 -0.77811855 2.1763227
C 0.84759635 0.7147947 -0.08194889
C -0.53007036 -1.0166507 1.0193545
C -0.2130407 0.3273041 -1.0648642
N 0.24723177 -0.5907853 -0.04656934
H -1.1960093 0.7769103 -0.93025744
H 1.8878212 0.752496 -0.3914268
H 0.052557994 0.075546436 -2.0878968
H 0.56537 1.3932691 0.7209914
H -1.3701992 -1.6547658 0.686295
