10

O 1.2185516 1.2952768 -0.25426865
C -0.5409736 -0.9679557 -0.050552648
C -0.68989795 0.25391474 -0.7841318
C 1.080724 0.6164219 0.77456915
N 0.07328959 -0.20009178 1.0652217
H 0.12347451 -1.7093261 -0.5012173
H 1.8093567 0.71057737 1.5916235
H -0.16669814 0.46408567 -1.7071142
H -1.4501977 0.9586235 -0.4634469
H -1.457629 -1.4215263 0.3293172
