11

N -0.55124607 -0.15669423 2.41597270
C -0.01863218 -0.41664252 1.29385561
O 0.98445770 -0.82466208 -1.19649727
N -0.34115114 0.35924477 0.19298081
C 0.13221451 0.21354633 -1.09850971
N -0.14247786 0.91035658 -2.12253779
H -0.22089918 -0.80607154 3.12418816
H -1.00156800 1.10215186 0.36829274
H -0.78970542 1.66753384 -1.92436325
H 0.69821086 -1.20957100 1.07590722
H 1.25079692 -0.83919194 -2.12928898
