11

N -1.8308138 -0.28778052 -1.2335815
C -0.7740325 -0.4128896 -0.4740881
O -0.66788304 -1.6577302 -0.15807383
N 1.9601194 1.1621243 1.1615303
C 1.1847634 0.23296936 0.79290676
N 0.105340436 0.52671933 -0.040493004
H 1.2361035 -0.82777494 1.0449005
H -0.009684157 1.4918587 -0.31254765
H -1.7151995 -1.5831337 -0.90536875
H 2.68804 0.78801316 1.7642109
H -2.176754 0.5676244 -1.6393955
