11

N -0.6971411 0.40501302 1.9821495
C 0.020054927 -0.26449615 1.0144585
O 0.73461884 -1.216565 1.2478427
N -0.124054484 0.28369087 -0.2523108
C 0.5258806 -0.22918563 -1.3648604
N 0.4057322 0.35234603 -2.48643
H -0.7278954 -0.085028075 2.8636987
H -1.5503569 0.8766419 1.7222255
H -0.6190176 1.1530415 -0.39340478
H 1.097943 -1.1297919 -1.1370153
H 0.93423605 -0.1456665 -3.1963534
