10

N 1.9270821 -1.0729408 -0.18802689
C -0.9055393 1.4903715 -0.47223657
C -0.4488763 -0.7493885 0.060749374
C -1.3277264 0.2079892 -0.44497648
C 0.9680327 -0.4458494 0.37914282
O 0.8369919 0.4221167 1.3052741
O -0.6346522 2.6037142 -0.49583933
H -2.367818 0.019496806 -0.6988167
H -0.8616994 -1.7163615 0.34964472
H 2.814205 -0.759148 0.20508502
