10

N -1.5388446 -1.4220401 0.7483424
C -0.67935395 -0.6411906 0.26570553
C 0.1421711 0.33218092 1.0099968
C 0.9245233 0.96340656 0.13777867
C 0.6382908 0.42160463 -1.2163748
O 1.1027098 0.69788724 -2.279389
O -0.3413984 -0.5485475 -1.0708436
H -1.9669502 -1.9925058 0.021077374
H 0.059817236 0.44965363 2.0826108
H 1.6590352 1.7395508 0.30109566
