10

N 0.08390998 -0.84594417 -2.0129898
C -0.1764421 -0.9893472 1.555836
C 0.16686022 0.26879948 1.34826
C -0.018701138 0.09381123 -1.1947773
C 0.40819356 0.78906447 -0.009257223
O -0.7976152 1.126373 -0.8721142
O -0.46823788 -2.0898805 1.7775044
H 0.27879035 0.9046365 2.2196708
H -0.6557815 -0.80801475 -2.714294
H 1.1790239 1.5505021 -0.097839065
