11

N -1.0555154 -0.6303844 -1.4037929
C -0.244527 -0.13853562 -0.37437677
N 1.6852068 0.65081036 0.4966882
N 1.0673836 0.13187687 -0.5867241
C 0.73253566 0.71019673 1.4086758
C -0.5047571 0.22251247 0.9315487
H 1.5718644 0.05056249 -1.453788
H -1.4428437 0.13753854 1.4597023
H -0.7473052 -1.5252948 -1.7668852
H -2.020458 -0.7035102 -1.1058855
H 0.95841604 1.0942276 2.3948371
