12

C -0.25080022 0.13792129 0.7114275
C -0.97306937 -0.41902125 1.8025544
O -0.15862963 1.4192854 0.8720817
N 0.21922706 -0.45582196 -0.39651698
C 0.6843107 0.24064864 -1.5166669
N 1.1603974 -0.40444335 -2.4928815
H -0.40352076 -0.39570028 2.7311487
H -1.5617838 -1.3235732 1.6614624
H -0.9966823 1.1104816 1.7156202
H 1.4457842 0.23366974 -3.2321656
H 0.25349653 -1.4648467 -0.44275588
H 0.58127016 1.3213999 -1.4133079
