12

C 0.0029155998 -0.20844662 0.8320771
C -0.00974093 0.056643732 -1.6261619
O -0.04205348 -1.5381824 0.55546176
N 0.0058509875 0.87578434 -2.5975647
C 0.02966956 0.32070082 2.0564916
N 0.013793638 0.5404835 -0.33392495
H -0.04192475 -1.0327204 -1.689935
H -0.019488864 0.37690622 -3.4808269
H 0.009647983 -0.31208205 2.9381013
H 0.037153643 1.5439818 -0.24249949
H 0.07737615 1.3937463 2.1960027
H -0.063199535 -2.016815 1.3927785
