10

C -0.93204635 0.37710056 2.36722
C -0.47381532 0.21055113 1.2678701
C 0.06618863 0.00892482 -0.033646073
C 1.341102 0.12111974 -0.5509912
N 1.3043916 -0.19882907 -1.8672353
N 0.08806983 -0.50057995 -2.1990843
N -0.6653643 -0.3797473 -1.1104898
H -1.3317138 0.5280171 3.3475513
H 2.2560837 0.4065767 -0.05546406
H -1.652896 -0.5731337 -1.1657308
