11

C 0.82393151 0.58592244 2.59583825
C 0.46139453 0.15689335 1.24416927
C 0.15769000 -0.17877071 0.13622406
C -0.92957728 0.14129524 -1.86906689
O -0.11520371 -0.64389876 -1.06747380
N -1.02020098 -0.55094306 -2.99722676
H 1.89139410 0.42449990 2.77759667
H 0.60930571 1.65126370 2.72554745
H 0.25595552 0.02639099 3.34586257
H -0.56922465 -1.45166469 -3.14373900
H -1.56546446 -0.16098825 -3.74773149
