11

C 1.0653808 -1.248623 0.79009
C 0.5756629 -0.25153512 0.09181341
C 1.3849666 0.5907464 -0.86518675
C -0.860922 0.17413355 0.3176589
O -1.2331922 1.2871624 0.005795447
N -1.6636796 -0.76197875 0.8794932
H -1.3486601 -1.7065238 1.0226349
H 0.9895088 0.48181424 -1.880363
H 1.2767649 1.6396376 -0.57428503
H 2.4375815 0.30804583 -0.8540321
H -2.623412 -0.5128793 1.066381
