11

C -0.73010486 -0.17060478 -2.315592
C -0.16547933 -0.12076972 -0.969094
C 0.3185153 -0.08755921 0.13467632
C 0.9773285 -0.099580504 1.4399124
O 2.0847147 -0.5663561 1.610546
N 0.24408859 0.47164425 2.4399576
H 0.010862145 0.15193044 -3.051988
H -1.6065074 0.47643393 -2.4035492
H -1.030685 -1.1940346 -2.56397
H 0.6141412 0.40509516 3.3763683
H -0.7168736 0.7338011 2.3027318
