12

O 1.72721806 0.15793472 -0.12431547
C -0.56259813 1.13715771 -1.42461363
C 0.62933888 -0.19728080 0.26935616
C 0.46041376 -1.15096309 1.43848853
N -0.53814362 0.22457324 -0.29725291
H -1.03165858 0.67128070 -2.29753333
H -1.10290043 2.05578141 -1.17353721
H 0.47405564 1.38138151 -1.66053126
H 0.95218046 -0.71119356 2.30983773
H -1.40959167 -0.11223372 0.07666457
H -0.58165291 -1.37542145 1.68518554
H 0.98333856 -2.08101672 1.19825139
