10

O -0.31297767 1.59065620 -1.24133854
C 0.75138478 -0.57012620 -0.74710404
C -0.12530268 0.65172989 -0.51295604
C -0.73286663 0.44184570 0.86091540
O -0.19524233 -0.83651536 1.29968651
C 0.62088281 -1.44838216 0.47576036
H -1.82364240 0.37311788 0.83796044
H 0.45092236 -1.12235523 -1.64500277
H -0.43446664 1.21223018 1.57687425
H 1.80130854 -0.29220074 -0.90479589
