10

O 0.33205324 -0.50962055 -2.2358587
C 0.14766394 -0.3222321 -1.0691625
C -0.9080904 0.48403442 -0.26481667
C 0.009752204 0.26734337 0.9397636
O 0.0741331 -1.1289815 1.1352751
C 0.9752835 -0.55383 0.18672131
H -1.9090286 0.0588495 -0.17275771
H -0.96292776 1.5148387 -0.62976784
H 0.20511961 0.91717213 1.7848212
H 2.0360413 -0.7275738 0.3257819
