12

C -1.1719717 0.4276325 -0.027089374
C -0.29587656 -0.61150575 -0.7516581
N 0.032822814 0.89627963 0.6762619
C 0.73875034 -0.34372187 0.3617636
O 2.0900705 -0.20439273 0.05707025
H 2.1596456 0.5439329 -0.5520416
H -0.053735644 1.1385378 1.6576719
H -1.6637995 1.1910807 -0.63585246
H 0.698558 -1.1020148 1.1535686
H 0.06139584 -0.25788832 -1.7227436
H -0.67909175 -1.6295215 -0.84298
H -1.916768 -0.04841875 0.6260287
