12

C 0.80025248 -0.33249046 0.20932220
C -0.30630559 -0.43649834 -0.86146279
N 0.01071180 0.69774746 0.88020365
C -1.20513469 0.27864364 0.16470924
O 2.09569857 0.03759076 -0.14164237
H 0.91095427 -1.26280300 0.78014832
H -1.83327527 -0.42959382 0.72305381
H -0.00358969 0.67680366 1.89445401
H -0.59559625 -1.43807557 -1.18504214
H -0.08088283 0.18691518 -1.73108114
H -1.82559442 1.10529107 -0.19169499
H 2.03276170 0.91646928 -0.54096765
