10

O -2.0542388 0.2068201 -1.246959
C 0.37272868 0.5913748 -0.6515691
C -0.7159536 -0.6635891 0.61811936
N 0.7004624 -0.20590827 0.59926057
C -1.0813361 0.02959048 -0.5330031
H 0.9692864 0.25688788 -1.5024306
H -1.1193072 -1.3298702 1.3653901
H 0.5098945 1.6607646 -0.47773045
H 1.0042826 0.3767786 1.3828722
H 1.414181 -0.92284894 0.44604993
