10

O 0.79329884 1.9328623 -0.7615586
C 0.35405275 0.8897133 -0.3774855
C -0.9300849 0.44042897 0.32842863
N -0.5064073 -0.95629245 0.094900765
C 0.8343772 -0.5642936 -0.38908175
H -0.9563881 0.76417667 1.3779997
H -1.8730106 0.7267166 -0.15044068
H -0.49384728 -1.5276761 0.93074137
H 1.6644843 -0.72795194 0.31112045
H 1.1135252 -0.9776835 -1.3646244
