12

C 0.24617031 -0.5365495 0.08994042
N -1.0240716 -0.66707796 -0.50340414
C -2.1960106 -0.5306927 0.20251085
N 0.9229965 0.5927175 -0.13801792
C 2.140874 0.9896123 0.18606271
O -3.2910457 -0.7983811 -0.23968239
H -2.0103688 -0.13387327 1.2165316
H 0.3648463 1.2689202 -0.65197295
H 2.440162 1.9909687 -0.082439415
H -1.1279956 -1.1360036 -1.3957375
H 2.7939074 0.32029083 0.73050034
H 0.74053633 -1.3599317 0.5857083
