11

N 1.3686912 -0.6707054 2.593378
C 0.6601908 -0.67514145 1.6819997
C -0.24253342 -0.6534708 0.51459473
C -0.5321287 0.7438246 -0.074383765
C 0.24277057 0.22174618 -1.2917577
O 0.40706414 -1.0764693 -0.68322796
H -1.1211346 -1.2659315 0.7444269
H -1.5937856 0.93320835 -0.2427785
H -0.08241907 1.5794258 0.46144786
H -0.31736997 0.16159606 -2.2283564
H 1.2106545 0.7019178 -1.4753428
