11

N 2.1496015 1.6298937 0.8741846
C -0.4861424 -0.64982873 -0.0066119493
C 1.4435017 0.7180286 0.93601495
C -0.7360551 0.31172165 -1.1348963
C 0.576108 -0.4479509 0.99573976
O -0.78532976 -0.21005128 1.3102467
H -0.37784418 1.31412 -0.88905555
H -0.22976017 -0.03569597 -2.0408754
H 1.025014 -1.3085746 1.4876271
H -0.77051485 -1.6873754 -0.18814558
H -1.8085787 0.3657129 -1.3442285
