11

N 1.83614322 1.05714139 1.88482600
C 0.77517296 -0.84790346 0.45191223
C -0.33142788 -0.56414472 -0.48015809
C 1.35647377 0.21163493 1.26118032
C -0.91751299 0.80901761 -0.65619934
O -0.55734043 -1.22140119 0.75839406
H -0.40471679 -1.23131752 -1.34029438
H -1.99360845 0.73142760 -0.83796907
H -0.75732560 1.42587788 0.23114422
H -0.46128567 1.30195297 -1.52031916
H 1.45542772 -1.67228515 0.24748328
