10

N 2.6493156 -0.03122029 1.9982967
C 0.5396212 0.30818146 0.5297871
C -1.1086404 -0.11248164 -0.8822689
N -0.13942434 1.4543374 0.49885353
C 1.7123287 0.11777211 1.3441502
C -1.2021208 1.3065014 -0.35461453
N 0.07928164 -0.6693168 -0.23444468
H -0.9997287 -0.10582616 -1.9710306
H -2.0069692 -0.677312 -0.6133696
H 0.4763369 -1.5906355 -0.31535918
