10

N 0.68369698 -0.33654467 3.22991228
C 0.42519152 -0.07930627 2.13672695
C 0.09932582 0.24667938 0.77209119
N -0.24445475 1.47476359 0.38562349
C -0.50528086 1.44939060 -0.96007816
C -0.27207738 0.01510509 -1.39494801
N 0.12699222 -0.68098108 -0.17138441
H -1.19167342 -0.41001986 -1.80961258
H 0.51774932 -0.02830137 -2.15098886
H 0.36053027 -1.65078558 -0.03734190
