10

N 0.60966504 -0.17449504 3.3032107
C 0.35223475 -0.027767302 2.185372
C 0.040336575 0.13613269 0.79682016
N -0.65534174 1.1226597 0.28486007
C -0.7010035 0.8640062 -1.054737
C -0.02454906 -0.29111102 -1.3496157
N 0.45042914 -0.7540133 -0.15276352
H -1.2214572 1.5246693 -1.7346168
H 0.15721546 -0.8103514 -2.2773254
H 0.99247026 -1.58973 -0.0012045249
