11

C 0.27651405 -0.005214456 0.026264997
C -1.0629649 -0.10133277 0.40868127
C 0.97268546 1.0252095 -0.8039356
N -1.1516159 -1.2805696 1.227361
N 0.9086298 -1.0614083 0.54775447
N 0.052522134 -1.8184885 1.2092881
H -1.5862015 -1.2210402 0.044690903
H 2.0499716 0.85181886 -0.75334734
H 0.6580775 0.96201414 -1.8497975
H -1.8745064 0.6142295 0.38760117
H 0.7568884 2.0347817 -0.44456127
