12

O 0.87556684 1.9652355 -1.2808026
N 1.0117779 1.4109044 -0.004304959
C 0.31224352 0.3647826 0.103895776
C 0.13421348 -0.60623163 1.2423677
N -0.5619627 -1.5138204 0.2953105
C -0.58627826 -0.4801073 -0.7716889
H 1.4689224 2.7240963 -1.2383479
H -0.49433672 -0.21367523 2.052329
H 1.0489293 -1.0261408 1.6718372
H -1.4827887 -1.7962725 0.60900205
H -1.5665394 -0.020209659 -0.9557261
H -0.15974751 -0.80856127 -1.7238718
