12

O 1.5581989 0.8520356 0.6398196
N -0.44428197 -0.47550398 -1.2069974
C 0.2601948 0.14868918 0.6748414
C 0.26871142 -1.1703099 -0.11222783
N 0.5867486 0.48111877 1.94731
C -0.8085139 0.6426187 -0.31520513
H -0.6871825 1.6439042 -0.74816096
H 1.3791331 1.8021537 0.52521884
H -1.805914 0.5717594 0.14030331
H 1.2466381 -1.5826019 -0.38275346
H -0.31835896 -1.9284676 0.4215226
H -1.2353736 -0.9853964 -1.583671
