10

C 0.32289279 -0.72253835 -0.21205059
C 0.9795173 0.4877645 -0.6969359
N 0.28016865 1.5672408 -0.46090686
C -0.35713744 -0.617824 1.079378
N -0.99805045 0.50934917 1.2267344
C -0.82705665 0.7959427 -0.11730825
H 0.5760234 -1.6952935 -0.6293528
H -0.3388913 -1.3899117 1.8483778
H -1.5913024 0.55265903 -0.8542425
H 1.953836 0.5126112 -1.1836934
