10

C 0.8200009 -0.09533322 0.7835398
C 0.4481329 1.1355909 0.2610791
N -0.50985265 1.2600005 -0.6582878
C -1.0927724 0.12725733 -1.0454425
N -0.8248887 -1.1044228 -0.6174892
C 0.13743426 -1.20331 0.3002111
H 1.6009835 -0.18739872 1.5300369
H 0.93160707 2.055622 0.58505976
H -1.8763065 0.2181036 -1.7947246
H 0.36566156 -2.2061098 0.65601754
