10

C -0.64207894 0.8870716 0.8081818
C -0.34142107 0.2994922 -0.5588167
N -0.4787141 -0.15068626 1.5450305
C -0.18805997 -0.95436835 0.32274464
N 1.264143 -1.0235825 0.0023757527
C 1.1365708 0.00633608 -0.75247073
H -0.7480427 -1.8845012 0.21738553
H -1.0158283 0.44261843 -1.4035182
H -0.9084443 1.8864636 1.1493194
H 1.9218754 0.49115616 -1.3302324
