12

O 0.49209214 2.03731104 0.87486533
C 1.43346603 1.00348951 0.14051656
C 0.48389374 -0.02801340 -0.15490640
N -0.69187323 -0.08038450 0.48902567
N -1.28372103 -1.17783110 -0.06368706
C -0.45353684 -1.72822306 -0.95700794
N 0.66560273 -1.04859569 -1.05813085
H -0.70356329 -2.62705643 -1.50197417
H -0.41239466 1.55787246 0.87977053
H 1.82020826 1.53402445 -0.72688472
H -2.16049132 -1.52052544 0.28970969
H 0.81031756 2.07793241 1.78870346
