12

O 0.23249063 2.1091723 0.8096422
C 1.274649 0.9229459 0.77781856
C 0.48662078 -0.08016488 0.12533039
N 0.971922 -1.2312062 -0.44913232
N -1.2093288 -1.0930601 -0.618082
C -0.11781979 -1.8184088 -0.88759387
N -0.84833413 0.034872625 0.05839035
H 0.03989137 2.263425 1.746194
H -2.1790261 -1.3256216 -0.7471444
H 2.1157346 1.295935 0.19740836
H -0.16691563 -2.770189 -1.3966193
H -0.5998838 1.6922997 0.38378796
