10

O 1.4456103 -1.2699984 0.87140363
C 0.54600215 -0.45627782 0.32242012
C 0.8837436 0.8949954 0.083579324
N 0.009074532 1.7132872 -0.45529407
N -1.2076445 1.2586958 -0.7774298
C -1.4661589 -0.011782086 -0.53516334
N -0.6387954 -0.9209568 0.010596859
H 1.0272624 -2.142763 0.9539606
H 1.8613716 1.2939602 0.3334609
H -2.460466 -0.35916078 -0.8075343
