10

O -1.0314707 -1.8776069 -0.7971199
C -0.40533373 -0.80946076 -0.48305947
C 0.44319478 0.1127265 -1.1517111
N -0.6688185 -0.5899029 0.8084605
N -0.19737497 0.4182292 1.5240852
C 0.57647127 1.2313287 0.8384359
N 0.91896117 1.1246464 -0.48069566
H -1.329199 -1.6778387 0.5522064
H 0.98584837 2.0724518 1.3878644
H 0.70772123 -0.0045730914 -2.1984658
