11

O -0.8963457 2.0289989 0.59203625
C -0.46203566 0.90686864 0.32537404
N 1.0035058 0.7905527 -0.22112614
C 0.60035175 -0.37696755 -0.79481375
C 0.09455079 -1.2566639 0.2653054
C -0.5457513 -0.412465 1.0786419
H -0.9313369 0.39274928 -0.83120894
H 0.1536044 -2.3360054 0.2735447
H -1.0975766 -0.5807833 1.9922214
H 1.1930106 1.5334318 -0.88520026
H 0.88802296 -0.68971604 -1.7947744
