10

O 0.75577927 1.5686274 -0.33313388
C 0.18749774 -0.43120334 0.72441304
C -0.99730545 -0.66690993 -0.027701149
C 0.9233471 0.29284844 -0.43421167
N -1.0377179 0.41556212 0.7494092
H 0.5461921 -0.8939317 1.6376634
H 0.0901032 -0.19321845 -1.2608876
H 1.8616449 -0.12671775 -0.82094944
H -1.7017376 -1.3094325 -0.5320004
H -0.62780315 1.3443756 0.29739854
