10

C -1.160302 0.06327835 -0.57215923
C 0.34936804 0.18810634 -0.5088551
O 1.0036058 0.53744936 -1.463856
C 0.98953265 -0.15330796 0.8212189
H -1.5015324 0.16747722 -1.6051263
H -1.4901237 -0.89742213 -0.16256724
H -1.6162683 0.85086966 0.038332682
H 0.91654515 -1.2342515 0.99092805
H 2.0427868 0.13646127 0.81566304
H 0.46638808 0.3413394 1.6464213
