10

N -0.20882702 0.47415987 0.014563749
C 0.18591367 -0.84628135 -0.3429427
O -0.21720123 1.993593 1.7014679
N -0.14715883 -1.0973595 -1.6360768
C 0.088263966 0.79849315 1.2054344
O 0.7309466 -1.6424754 0.3916141
H -0.6665978 2.485021 0.9950001
H -0.51119167 -0.35414454 -2.2080705
H 0.6039911 0.15901235 1.9199752
H 0.14186122 -1.9700185 -2.0409653
