10

N 0.6011317 -0.81172174 1.504854
C 0.014519399 0.16869466 0.7424305
O -0.39682198 1.2178171 1.1895548
N -0.103348255 -0.17561406 -0.6047833
C -0.6378565 0.6750076 -1.5596057
O -0.76788 0.3469418 -2.7126718
H 0.827329 -0.51744276 2.442824
H 1.2493427 -1.4551586 1.0791395
H 0.13137841 -1.1028384 -0.93225133
H -0.91779464 1.6543145 -1.1494904
