10

N -0.23661553 0.44789495 -0.10977986
C -0.28219030 0.95266169 1.05416237
O -0.78541652 2.16387686 1.27174695
N 0.35755654 -1.30924642 -1.43548876
C 0.32490800 -0.85975998 -0.15366610
O 0.71182896 -1.49347256 0.80511443
H 0.07124364 0.46787351 1.96275666
H 0.79966714 -2.19237768 -1.61884198
H 0.10618840 -0.68801409 -2.18578846
H -1.06717050 2.51056380 0.40978502
