10

O 1.95731981 -2.28132991 0.07070863
C 0.26110956 0.87155886 -0.44981537
N 1.34063472 -0.06376290 -0.54496260
C 1.57380622 -1.20465817 -0.18828616
C -0.97274415 0.36807732 0.26134280
N -1.03079520 -0.79634116 0.74878895
H -1.78314704 1.10678284 0.30632984
H 0.61313170 1.77652345 0.06384325
H -0.02416257 1.19123570 -1.46068711
H -1.93515262 -0.96808600 1.19273762
