10

O 1.662043 -0.12798679 -1.4520063
C 1.1598908 0.7897059 -0.8446768
N 0.27935505 0.64604 0.19134232
C -0.2126511 -0.65866816 0.574941
C -1.6468801 -0.8137589 0.28375137
N -2.7782645 -0.91597944 0.07505081
H 1.3808112 1.8519086 -1.0544902
H -0.15281576 1.4705766 0.58252025
H 0.35773468 -1.39416 0.001318091
H -0.04922283 -0.84767777 1.6422493
