17

C -1.4518387 -1.7364557 0.62726605
N 1.0705389 0.6739386 -0.52097094
C 2.1393213 -0.19047682 -0.9726659
O -0.9459491 0.8681331 0.5246144
N -0.15093449 -1.2143663 0.26277345
C 0.06306957 0.12936798 0.037273295
C -0.7958648 2.27507 0.37961435
H 2.5705433 -0.7932554 -0.15900132
H -1.6965643 2.7020786 0.82519263
H -0.71825534 2.556917 -0.6740079
H -1.3370298 -2.7896354 0.8955878
H -1.8300543 -1.1988475 1.4987379
H 0.09371706 2.6334755 0.90395087
H 0.42506555 -1.8209242 -0.29358765
H 1.8180976 -0.8763857 -1.7738738
H 2.9380841 0.43342507 -1.3827283
H -2.1919467 -1.652059 -0.17817473
