17

C 1.7626528 0.85581446 -0.8299967
N -0.14873247 -1.2924054 -0.54275006
C -0.4413654 1.8523202 1.5191352
O -1.1379942 0.06595408 1.0203396
N 0.5893459 0.880493 -0.0013585828
C -0.23342757 -0.11587221 0.14253253
C -1.206884 -2.275922 -0.46885952
H 2.3740134 -0.042260725 -0.66016614
H -0.8196925 -3.2459846 -0.78531694
H -2.0716946 -2.0116978 -1.0911295
H 0.54258424 2.261091 1.7333214
H 0.40423608 -1.2714548 -1.3820987
H -1.5416757 -2.3481183 0.5678586
H -0.97101784 1.5770811 2.426893
H 1.5295041 0.9236198 -1.904069
H 2.3890142 1.7214365 -0.58193344
H -1.0188667 2.4659064 0.8375984
