17

C -2.01069596 -0.98339815 0.71176290
N -0.76068405 -0.99372295 -0.01977493
C 0.13211038 0.05590976 0.03903963
O -0.13676032 0.86172046 1.07816022
N 1.12177496 0.27979087 -0.73143392
C 0.75902480 1.95305169 1.25016870
C 1.37331049 -0.66612083 -1.79704131
H -2.46761618 -1.97246640 0.62612970
H -1.81459626 -0.78542815 1.76717068
H -2.71910520 -0.23011700 0.34523684
H -0.77278781 -1.47352375 -0.90231156
H 1.54162899 -1.68862614 -1.42623643
H 0.38775027 2.48699464 2.12720694
H 1.77985221 1.60263051 1.42295637
H 0.75718097 2.60673382 0.37365454
H 2.27527710 -0.35376774 -2.33025658
H 0.55433572 -0.69966068 -2.53443209
