11

C -1.14762983 0.78740512 0.29729428
N -1.08699719 -0.47836171 0.19186599
C 0.64407246 -1.96382050 -0.27946419
N 0.30354924 -0.71229589 -0.11652876
C 0.17423905 1.45525621 0.07237816
N 1.05959271 0.34311308 -0.19726603
H 0.47576599 2.03170668 0.95966908
H 0.11738666 2.16040937 -0.76937214
H -2.09331953 1.26706937 0.53075316
H -0.12361369 -2.71351768 -0.17534354
H 1.67695396 -2.17696414 -0.51398609
