10

O -0.51512923 0.50498405 -0.39189108
C 0.64725848 1.17021816 -0.48314491
N 1.72068020 0.73228825 0.01051983
C -0.43013363 -0.73863910 0.29841689
C -1.77243735 -1.32700306 0.30547210
N -2.81133022 -1.83401758 0.33465412
H 2.48281047 1.38485696 -0.16107286
H 0.48531297 2.10342573 -1.03005325
H 0.27194108 -1.41001052 -0.20602154
H -0.07897267 -0.58610287 1.32312065
