10

O -1.4727044 0.012066007 0.011688886
C 0.6628624 -1.0573525 1.2061832
N 0.35190192 1.0260386 -0.5903762
C -0.90659463 1.0884994 -0.30526304
C 0.27872196 -1.0195242 -0.18540016
N 0.9995857 -1.1273136 2.311739
H -0.4584663 -1.7655519 -0.45762265
H 1.1328349 -1.0307857 -0.85142374
H 0.89294326 1.8532811 -0.8110025
H -1.4810847 2.0206425 -0.32852253
