10

O 0.33501336 -0.5087016 -2.2364054
C 0.14858392 -0.3241769 -1.0686767
C -0.9069926 0.4840096 -0.26503384
C 0.0104756495 0.26905116 0.93923396
O 0.07085653 -1.1284692 1.1367775
C 0.97447294 -0.55551153 0.18813415
H -1.9075688 0.059957605 -0.1709935
H -0.9630576 1.513569 -0.6324162
H 0.2037245 0.9196586 1.7823107
H 2.034492 -0.7293865 0.3270691
