10

O -1.1883042 -0.276692 1.2569768
C -0.9316092 0.68932927 0.3400738
C 1.4785964 -0.06633321 0.26155484
C 0.38552412 -0.12141167 -0.58337206
O 0.34894463 0.03773052 -1.847886
C -1.0005798 -0.5979944 -0.1740576
H 1.3552761 -0.3080867 1.3141626
H 2.466699 0.13274898 -0.1369275
H -1.6871194 -1.2130886 -0.734361
H -1.2274274 1.7237978 0.30383605
