10

O -0.42145553 0.07572465 -1.85220399
C -1.10439281 -0.61454428 -0.85092788
C -0.53746525 0.68492306 -0.54268137
C 0.40033947 -0.09129849 0.34142211
O -0.16288262 -1.31583645 -0.03691529
C 1.35371471 0.13387553 1.22923996
H -2.09194715 -1.02682064 -1.02285622
H -0.92736794 1.68951147 -0.46917761
H 1.66410399 1.15000952 1.44597144
H 1.82735303 -0.68554413 1.75812862
