14

C 1.05214863 0.70588570 -1.65746512
N 1.31962679 0.08190885 -0.37208736
C 0.30634655 -0.33064387 0.47265414
O -0.84673396 0.28321973 0.16455858
N 0.37358431 -1.15193088 1.44621781
C -1.94674507 -0.00710940 1.01900781
H 0.57602414 0.02747797 -2.37638499
H 2.13103741 -0.51447826 -0.34110704
H 2.00343534 1.04992220 -2.07213299
H 1.31668598 -1.50724066 1.55872400
H -2.18504922 -1.07346939 1.00101913
H -2.77670989 0.58045805 0.62532757
H -1.72606640 0.28455952 2.05043605
H 0.40241487 1.57144070 -1.51876700
