11

O -2.0142407 0.98722047 1.3787715
C -1.0814025 0.61261284 0.7241577
N -0.97563326 -0.5492343 -0.014494158
C 0.40716666 -0.80710095 -0.35865864
C 0.9421532 0.6307915 -0.32461396
O 0.079957776 1.3108985 0.5876006
H -1.6055789 -1.2951785 0.23875703
H 0.9062171 -1.4442965 0.38217732
H 0.5111472 -1.2632743 -1.3456049
H 0.86192876 1.1104122 -1.3057286
H 1.968285 0.70714897 0.03763599
