10

C 0.38678762 2.053235 1.4992251
C 0.18294027 1.091094 0.8053883
C -0.05858619 -0.043315265 -0.018611066
C -1.20618 -0.7221333 -0.373395
N -0.87012583 -1.7414073 -1.1998937
N 0.4156192 -1.7379266 -1.3800532
N 0.91371244 -0.7250411 -0.677458
H 0.5576701 2.9088976 2.1168814
H -2.2281566 -0.5332278 -0.0846184
H 1.906319 -0.5501752 -0.68746555
