10

C -1.9350439 1.1270717 1.1603361
C 1.0696058 -0.68410224 0.5315402
C -1.0388466 0.60952455 0.55296534
C 0.030431792 -0.0041126376 -0.19942795
N 0.13281153 0.0043740687 -1.4834974
N 1.9205343 -1.1643279 -0.36229753
N 1.9823118 -1.1482173 -1.5181841
H -0.6166205 0.48323008 -1.9754053
H 1.187867 -0.81161016 1.5939454
H -2.7330513 1.5881697 1.7000253
