10

C 0.01037312 2.04934247 1.49877886
C 0.14768053 1.09187867 0.78481871
C 0.35711035 -0.05575378 -0.07538062
C -0.86274427 -0.75019900 -0.44909449
N -0.67249220 -2.68361801 -1.91346401
N -0.76274731 -1.78682252 -1.23253824
N 1.50257066 -0.45191811 -0.48744514
H 2.23846485 0.15742610 -0.13080655
H -1.85518945 -0.47286299 -0.12863103
H -0.10302626 2.90252722 2.13376239
