10

C 0.8182382 -0.094735794 0.7850425
C 0.44568378 1.1376482 0.26062727
N -0.5106882 1.2608484 -0.6593945
C -1.0913388 0.12487748 -1.0466685
N -0.82251525 -1.1059655 -0.61857337
C 0.13907678 -1.2047334 0.30094096
H 1.5979273 -0.18432207 1.5320271
H 0.9284774 2.0574448 0.586971
H -1.873177 0.21648921 -1.7984841
H 0.36831573 -2.2075515 0.6575117
