10

C 0.79956438 -0.68133572 -0.13421515
C 0.03765755 1.44750850 0.32055190
N -0.58138437 0.79277535 1.20705933
C -0.41930784 -0.50018814 -0.83976988
N 0.54222678 0.63281950 -0.77743385
C -0.47507836 -0.56360445 0.66329510
H 1.66888163 -1.31195895 -0.24917862
H 0.21368932 2.51754535 0.32088971
H -0.87015469 -0.94089004 -1.71756538
H -0.91609446 -1.39267159 1.20636690
