10

O -1.9231691 0.9910814 0.06357299
C 1.0028092 -0.09180568 -0.4484199
N 1.4627312 -0.27920532 0.8150559
C -0.288721 -0.56827027 -0.9478958
C -0.9109114 0.16408178 -0.055515986
N 0.69557554 0.04303371 1.7643414
H 1.7462411 0.23516354 -1.1738704
H 1.0713097 -0.4151092 2.6070526
H -0.47315225 -1.1674675 -1.836868
H -2.382713 1.0884975 -0.78745246
