10

N -0.7323666 -0.065353125 1.0818783
C -0.69799143 -1.2321379 0.5593443
O -0.0038366395 -1.4342812 -0.56978387
C 0.05564908 0.7418923 0.21986124
C 0.5549399 -0.14983876 -0.9039564
N 0.3206201 1.9737562 0.3188492
H -1.1941773 -2.112585 0.95355195
H -0.12533619 2.355642 1.1518584
H 1.6435355 -0.2309471 -0.92885983
H 0.17896363 0.15385272 -1.8827434
