10

N 0.8060571 -0.15926844 1.6776378
C -0.37821412 0.14161219 1.364746
O -0.79348963 0.20817743 0.0871801
C 0.21300158 -0.08582229 -0.87197715
C -0.38627577 0.038239557 -2.202691
N -0.81716603 0.12444486 -3.2708824
H 0.9215389 -0.15819333 2.688778
H -1.213461 0.38218212 2.0270529
H 0.59580624 -1.1009243 -0.72807
H 1.0522027 0.609552 -0.77177423
