10

N 1.7834427 -0.8612003 -0.93659997
C -0.80948037 -0.5025134 -0.66110855
O -1.2666067 0.15897144 0.5275623
C -0.25056237 0.8237659 1.124921
C 0.6836617 -0.4752746 -0.61862147
N 0.93240213 0.7952951 0.70008373
H 1.8861742 0.13367312 0.0816201
H -1.2045029 -1.5192146 -0.66843456
H -0.5891959 1.3953989 1.9870895
H -1.1653324 0.051098593 -1.5365121
