11

O -1.5682887 0.061125573 1.8034939
C -0.69973177 0.016952444 0.7834705
N 0.39701423 0.7107629 0.66299665
C 0.9206594 0.29903966 -0.5413988
O 2.0792375 0.8157029 -0.99579597
C 0.14013642 -0.6388566 -1.1453522
N -0.92625934 -0.81059873 -0.25086224
H -1.2205557 0.70860547 2.429909
H 2.3718817 1.4483979 -0.3284516
H 0.21767408 -1.1806834 -2.0715003
H -1.7117678 -1.4304479 -0.3465094
