11

C -0.13245931 0.24525504 0.07141704
C 0.16817728 -0.9007237 -0.62111604
N -0.54867536 -2.1927652 -0.12435038
C -0.18569726 -1.729789 0.9425459
C 0.044706646 1.6492753 -0.40317813
O -0.60371125 0.0012899762 1.25537
H 0.81297964 -1.071106 -1.4684763
H -0.9434437 2.1116235 -0.4900322
H 0.5334419 1.68178 -1.380408
H 0.23084554 -2.0259337 1.8991104
H 0.62383586 2.2310934 0.3191177
