10

O 1.7520666 -1.1309322 1.012968
C 0.8031194 -0.6119802 0.5014322
C 0.50553215 -0.084949344 -0.93083555
C -0.7226138 0.583338 -0.30902717
O -1.5211728 -0.46476555 0.20187035
C -0.47095668 0.0271389 1.0340596
H 0.2920354 -0.82166344 -1.7074296
H 1.2918802 0.5982505 -1.2626245
H -1.1985338 1.5219088 -0.5642974
H -0.73135704 0.38365462 2.023884
