11

N 0.565583 1.1582185 -1.0522915
C 1.0020268 0.16671725 -0.40656307
C -1.3562156 0.37462938 0.48879486
N -1.6847543 -0.7299139 -0.046553615
C 0.03283681 0.8962987 0.36028478
N 1.878489 -0.850055 -0.44869196
H -2.6722088 -0.9203342 0.11800828
H 2.2498827 -1.0851874 -1.3584852
H -2.0485313 1.011287 1.0567423
H 0.3513558 1.6038756 1.1253506
H 1.6815358 -1.6255361 0.16340436
