11

N -0.56373807 -1.66432129 0.53438991
C -1.28546201 -0.62490795 0.41912508
C 0.65152194 0.67434737 -0.56384455
N 1.94571564 0.78567415 -0.22258854
C -0.71504149 0.63782819 -0.12698681
N -0.13685660 0.60116841 -1.54548972
H -1.11765846 -2.43827179 0.89850488
H -2.34875292 -0.58263399 0.69266410
H 2.18229043 0.48211402 0.70838247
H 2.62016906 0.57289541 -0.94424084
H -1.23218759 1.55610748 0.15008395
