10

N -0.48964033 0.22250772 1.0003113
C 0.7852119 -0.34061295 1.0116105
C 0.30263665 -0.14199117 -1.1097406
O -1.9375366 0.8578695 -0.6947239
C -0.889479 0.39453813 -0.32073772
N 1.2997134 -0.5749111 -0.13279282
H 0.7104367 0.6336606 -1.7666792
H 1.2731118 -0.5490915 1.9587704
H -0.0063677127 -0.977148 -1.746092
H -1.0480866 0.47517887 1.800074
