10

N -0.65659577 -1.2164497 1.1907308
C -0.17900069 -0.30542302 0.25891677
C -0.7825129 0.7303648 -0.37698427
O 0.1411 1.2668153 -1.2510906
C 1.2328677 0.5164955 -1.0828968
N 1.1228639 -0.42852104 -0.20903997
H -1.318197 -0.8367163 1.8515819
H 0.099645056 -1.6879544 1.6650814
H -1.7561171 1.1940053 -0.36114568
H 2.095947 0.76738334 -1.6851535
