10

N -0.56485045 -0.08664161 0.98148727
C 0.22075982 -1.16780339 0.58602996
C -0.46445426 0.91301923 0.01959603
O -1.01350537 1.98580137 0.04504645
C 0.47714878 0.29812701 -1.01327387
N 0.83876729 -1.03009510 -0.52228840
H -1.11924756 -0.01437465 1.81978712
H 0.27507265 -2.05179084 1.21391354
H -0.01725053 0.23122544 -1.98744389
H 1.36755983 0.92253232 -1.14285416
