10

N 0.40871233 -0.76168615 -0.6757593
C -0.12663694 1.0702679 0.43612698
C -0.19242911 -1.1458768 0.46240327
O 0.9934639 1.251382 -1.7287946
C 0.49398944 0.6671542 -0.7802959
N -0.49755076 -0.10583361 1.2272079
H 0.78883874 -1.3668365 -1.3889593
H -1.3670951 0.53193694 0.80925524
H -0.087166086 2.0323164 0.92044693
H -0.41412637 -2.172824 0.7183684
