17

C 2.1483672 0.5146474 0.8095334
N 0.35856965 -0.5101979 -1.0857754
C -1.8604425 0.89637065 1.3147601
O -1.3693544 0.18432401 0.18094248
N 0.71670884 0.5990764 0.9931273
C -0.03421111 0.107746914 0.085388765
C -0.5553338 -1.2799153 -1.9102026
H -0.8814079 -2.2140446 -1.4355212
H -1.4404643 -0.68271774 -2.1383867
H 1.3147426 -0.81902194 -1.0767616
H 2.633872 1.0089964 1.655831
H -2.947307 0.8664408 1.2180946
H 2.4921649 1.018369 -0.10673125
H 2.5184152 -0.523981 0.7889905
H -1.5004762 1.9290625 1.3115642
H -0.049435645 -1.5152911 -2.8507257
H -1.5444077 0.42013577 2.2458723
