10

N -0.14255215 -1.3282384 -0.4489479
C 0.91142005 -0.63553417 0.28117016
C -1.0575716 -0.45368317 -0.6641344
C -0.7498826 0.8825966 -0.13101287
C 0.45493323 0.7838452 0.44893536
H 1.0145603 1.5614158 0.9525896
H -1.969994 -0.7079442 -1.1978594
H -1.3915615 1.751403 -0.20737891
H 1.0775962 -1.1374592 1.2428885
H 1.8530523 -0.7164016 -0.27624992
