12

N -0.29237977 -0.8326828 1.7707583
C 0.10062165 0.29298615 1.08656
O 0.85399216 1.1320873 1.5331696
N -0.4950134 0.37265545 -0.18466878
C 0.26789358 0.9364914 -1.2726562
C -0.07002855 -0.51331097 -1.2577553
H -1.1410475 -1.2899013 1.4757234
H -0.10224751 -0.81941706 2.7602656
H -0.27869695 1.6123347 -1.9238173
H 1.2950126 1.2201115 -1.0546285
H -0.8684165 -0.895535 -1.8909404
H 0.7303103 -1.2158192 -1.0420108
