11

O -0.8159009 2.1584249 -0.6994597
C -0.42210135 1.0844767 -0.31113237
C 0.34718117 0.0011499651 -1.077539
C 0.54326797 -1.0854146 -0.056467302
C -0.016025476 -0.69502103 1.0913439
N -0.58863175 0.57830226 0.96505105
H 1.2830132 0.42286876 -1.4614489
H -0.23727009 -0.31387693 -1.9481547
H 1.0512003 -2.0232162 -0.23212261
H -0.074114084 -1.2107302 2.039526
H -1.0706189 1.0830369 1.690404
