11

O 0.011095871 -1.0946542 2.1239023
C -0.42745256 -0.19640565 1.4540854
C -0.39630923 1.3206786 -0.63903433
C 0.11678978 0.11786419 0.08635641
O -1.4438049 1.851391 -0.3702924
C 0.5919209 -1.0162578 -0.7413827
O 1.4970343 -0.1512312 -0.11153235
H 0.532192 -0.9379179 -1.8278444
H 0.51033056 -2.0095205 -0.302122
H -1.2644218 0.44897828 1.780144
H 0.27262494 1.6670753 -1.45228
