11

O 2.2859197 -0.46332398 0.6137429
C 1.2516519 0.07406834 0.9044352
C -0.9342235 1.1200061 0.02305786
C 0.04538015 -0.013990582 0.0032794701
O 0.35811377 -0.3603875 -1.3564903
C -0.53102976 -1.3745403 -0.27932328
O -1.0619111 1.8631706 0.9626258
H 0.5973129 -1.4187834 -1.1607056
H 1.0986538 0.6425961 1.8397971
H -1.558885 -1.2583705 -0.6568229
H -1.5509831 1.1895549 -0.8935966
