12

O 0.17931212 1.8399553 -0.32498693
C 0.82870984 -0.65102416 0.12909757
C 0.9244394 0.38486135 -0.93492204
O -1.6435692 0.28972733 0.8717515
C -1.5009046 -0.8655159 0.52329147
O -0.3926157 -1.441804 0.099821754
H 1.6088855 -1.3958012 -0.058672655
H 0.94719493 -0.2589399 1.1482365
H -0.022488879 1.4467678 -1.2781008
H 1.9630129 0.73752195 -0.95576876
H -2.3252172 -1.5892704 0.5331385
H -0.56675935 1.5035219 0.24711367
