11

N 0.60277585 -0.45784002 1.27851664
C -0.33528443 -0.26661895 -1.01726679
C 0.87192115 -0.33557022 -0.12691819
N -0.41507665 0.12117683 1.72139696
C -1.30295708 0.77692294 0.79673913
N -1.36850522 0.58256229 -0.45568466
N 2.06161190 -0.28893215 -0.55143947
H -0.75718975 -1.26939181 -1.16513264
H -0.04364114 0.10990771 -2.00067141
H 2.71114921 -0.39426246 0.23112339
H -2.02480375 1.42204555 1.28933717
