9

O -1.3206995 -0.6593369 0.8848714
C -0.5991906 0.29813394 0.15284051
C 0.86017257 0.193876 0.3377946
C 2.0437582 0.07473722 0.5099395
C -0.9293999 0.23309058 -1.2967201
N -1.2053369 0.15299195 -2.4144459
H -1.0006694 -1.5365427 0.63894004
H -0.9458328 1.2674468 0.5246905
H 3.0971985 -0.024396852 0.6620899
