11

N 0.31604403 1.0673329 -0.7514827
C -0.3347499 0.801602 -1.9550171
C -0.6372504 -0.893696 -0.6637026
C 0.648372 -0.09697086 1.3820623
N -0.96081156 -0.43091196 -1.8461069
N 0.06350356 -0.002995669 0.06074954
H -0.5868398 1.7941422 -1.098299
H -0.87881666 -1.8765126 -0.2702792
H 0.33490548 0.76369447 1.9781047
H 0.2979043 -1.0160385 1.8557308
H 1.737739 -0.10964582 1.3082404
