11

N -1.0915066 -0.26659724 0.039409142
C 0.058704954 -0.4113487 -0.7686777
C 1.0672206 0.21359076 0.052151196
N 0.47490615 0.6075903 1.3241847
C -0.81415385 0.3424891 1.216206
N -0.027703725 -0.99340665 -1.910388
H 0.88665414 -1.0201567 -2.354487
H -1.9801254 -0.64530396 -0.24663092
H 2.1384628 0.08751036 0.0046516396
H -1.5641373 0.60186565 1.9498101
H 0.85167855 1.483767 0.693771
