9

N -0.8848783 -0.57510346 -1.2235959
C 0.2355902 -0.14480795 -0.55312806
C -0.0565009 0.3686779 0.78672826
N 0.9563768 0.8017312 1.4857806
N 1.8342023 1.1702036 2.0868385
O 1.348664 -0.15522565 -1.0443125
H -0.69849133 -1.0864081 -2.0735314
H -1.7026497 -0.84673995 -0.7040798
H -1.0323131 0.46767214 1.2393003
