9

N 0.7713107 0.80937165 1.4307154
C -0.45175198 -0.7740119 0.021889066
C 0.31913805 0.4285424 0.30847645
N -1.2042137 -1.2258937 -2.242648
N -0.85313135 -1.0127152 -1.1946323
O 0.5434239 1.178368 -0.7934456
H 1.0615205 1.9350927 -0.47922894
H -0.72486436 -1.502097 0.7685927
H 0.5385683 0.16334309 2.1802814
