11

C 0.63697326 1.1565126 -0.5680035
O -0.2934121 1.3837055 -1.3105581
C 0.68645513 -0.023769367 0.36414015
C -0.6721612 -0.7018963 0.5368189
O -1.1564153 -1.2174284 -0.67671853
H 1.4065646 -0.73736626 -0.05878212
H 1.5164053 1.8306768 -0.55823153
H -1.2671427 -0.4572664 -1.2629956
H -0.5750289 -1.550539 1.2190268
H 1.0979651 0.306246 1.3257972
H -1.3802032 0.011124887 0.98950636
