9

N -2.365729 -0.3643642 1.0148289
C 0.14667335 -0.5392665 0.32101312
C -1.2478082 -0.4181577 0.7329232
C 0.59482014 -0.5249318 -1.1109886
N 0.70135254 0.72669655 -0.18635719
H -0.28837797 -0.3246718 -1.7312936
H 0.7640813 -1.0479978 1.0598601
H 0.056230947 1.5121428 -0.20469165
H 1.6387571 0.9805507 0.1047057
