9

N 1.107597 -0.98276746 -2.1860218
C 0.89444786 -0.5116884 -1.1538763
C 0.61532176 0.05353917 0.15477787
C -0.71012574 0.69186 0.37922698
N -0.3900722 -0.5783135 1.0067228
H 1.4903668 0.426891 0.67845726
H -0.76724607 1.5420294 1.053794
H -1.4042842 0.7100147 -0.45540112
H -0.8360052 -1.3515646 0.52232045
