11

C -0.5033457 -0.11672387 -0.6014307
N 1.1193568 0.38597888 0.5989955
C 0.037680764 1.1000233 0.17899214
O -1.7719918 -0.55615264 -0.2161245
C 0.66974795 -0.89184546 0.043009732
O -0.35918584 2.2178547 0.39726186
H 1.8469533 0.6113877 1.2615516
H -2.3392012 0.2201742 -0.11604029
H 1.3785852 -1.3512193 -0.64774394
H 0.3280458 -1.6106833 0.79164743
H -0.40664503 -0.008794039 -1.6901189
