11

C -1.4733709 0.79225177 -0.4478566
N -0.47890368 -0.088036865 0.12707725
C 0.8408718 0.023837587 -0.1255062
O 1.3814572 0.84445614 -0.8441425
C 1.6775688 -1.0241175 0.6064589
O 1.1971259 -1.8556637 1.3327656
H -0.9513327 1.5157193 -1.0765415
H -2.1826732 0.23139921 -1.0649828
H -2.0202155 1.3276654 0.33418593
H -0.7513683 -0.82929397 0.75667703
H 2.760841 -0.93821746 0.40186486
