11

C 0.09741710 -0.41155910 -0.67069315
N 0.24875252 0.93818289 0.90480382
C -0.40135700 0.99886811 -0.29100562
O -1.13009820 1.81195847 -0.80336501
C 0.67461617 -0.45566127 0.76358782
O -0.90523359 -1.35071149 -0.92309326
H 0.87112562 -0.40032529 -1.45011010
H -1.57492913 -0.93032128 -1.47915680
H 0.23236042 1.55809441 1.70143886
H 0.13436865 -1.15629507 1.40482997
H 1.75297785 -0.60223046 0.84276344
