11

C 1.2359815 -0.037020445 0.21179663
C -0.85836345 -0.38642824 -1.8456831
N -0.35717165 0.6913334 -1.8007027
C -0.21953277 -0.3978048 0.08206918
N -1.1009685 0.2547867 0.8877994
H 1.8136821 -0.49916017 -0.5909886
H 1.5856113 -0.42279154 1.1777517
H -0.40434152 -1.4654111 0.034886394
H 1.3881943 1.0440335 0.17556559
H -1.019736 1.2636468 0.8783169
H -2.0633552 -0.045184202 0.7891884
