11

C -0.22475545 0.10495302 0.37120928
C 1.26502305 0.14150439 0.05270400
N -0.96482532 0.94289608 -0.53882498
C -1.08356781 -2.37235785 0.28511955
N -0.68538464 -1.27032869 0.36033865
H -1.95852826 0.89796450 -0.33474681
H -0.39935944 0.47862106 1.38450756
H 1.61549069 1.17574951 0.10467370
H -0.83754212 0.61568513 -1.49203792
H 1.44727366 -0.24418301 -0.95663274
H 1.82617561 -0.47050425 0.76368983
