10

N 1.90670158 -0.20085673 0.49034131
C -0.33999186 -0.63505341 -0.40119760
O -0.06197701 -1.73731704 -0.82981711
C 0.72214246 0.18633977 0.30713715
O 0.28099694 1.39412954 0.73260778
N -1.54997717 -0.03955483 -0.49364729
H 2.02167301 -1.13176185 0.09085394
H -2.29681129 -0.53606353 -0.95321181
H 1.03421414 1.82540673 1.16572634
H -1.71697086 0.87473165 -0.10879266
