11

N -1.2553567 -1.5007601 0.45967385
C -1.4444906 -2.6559072 0.5779287
C -0.21689491 0.4742523 0.06687387
N -0.2942994 1.8282461 0.049733713
C 1.1389319 -0.07105213 -0.25203162
N -1.305705 -0.16544354 0.37842304
N 1.5325998 -1.2678409 -0.35557455
H -1.2188534 2.227293 0.1275436
H 0.39277574 2.354454 -0.4599809
H 0.7857883 -1.9361784 -0.1680694
H 1.885504 0.7129369 -0.42452013
