11

N 1.4152409 -0.50050724 1.3807217
C 0.26686198 0.47366372 -0.295389
C 0.6647784 -1.345073 1.7684257
N -1.1910868 -1.3368471 0.6645635
C -0.96008515 -0.4076033 -0.13945813
N 0.14755811 1.3964589 -1.2682973
N 1.3820926 0.4618779 0.36998263
H -0.29837692 -1.9345689 1.8030535
H 0.94683397 1.9666598 -1.5012099
H -1.7399254 -0.13966231 -0.87930334
H -0.6338918 1.3656018 -1.9030896
