10

C -2.18636893 -0.79388353 -0.12040350
C 0.47975880 2.04040462 1.01028906
N 0.86792961 0.98318509 0.52588665
C 1.21050029 -0.04779665 -0.14122259
C 0.24464581 -1.02225721 -0.62048595
N -1.01049617 -0.87883811 -0.45192815
H -2.85812841 -0.26725566 -0.80634936
H 0.59684105 -1.89823833 -1.15231936
H 2.26281889 -0.20903947 -0.34368409
H 0.39249942 2.09371912 2.10021724
