11

N 1.58945670 -0.69635113 -0.94094700
C 1.55677298 -0.30664346 1.82569613
O -0.59770511 0.06807088 -0.90927678
C 0.56648532 -0.25747476 -0.36545822
C -1.66399971 0.58278422 -0.09696777
O 0.54656203 -0.05319070 1.03240955
H 2.37212617 -0.69207098 1.15574177
H -1.95620756 -0.14485748 0.66322680
H 1.43552167 -0.77259395 -1.94133939
H -2.47950106 0.74972083 -0.79864009
H -1.36951098 1.52260677 0.37555495
