9

O 0.8361123 -1.7219853 -0.62231666
C 0.2729959 -0.57351106 -0.21486653
N -0.6590653 0.06856465 -0.89790815
N -0.90551627 1.124074 -0.12549181
N -0.21509519 1.212429 0.98891574
C 0.5598936 0.13097869 0.9672018
H 0.44255164 -1.962672 -1.4710221
H -1.5910633 1.8160176 -0.3821124
H 1.2591866 -0.093895644 1.7576002
