9

O 0.45940366 1.22308562 1.25376503
C 0.06160945 -1.23796696 -1.12227520
N -0.99228476 -0.47637565 -1.39937309
N -0.96333124 0.55096986 -0.49152591
N 0.83140483 -0.80327698 -0.07908426
C 0.10619600 0.25298861 0.17641207
H 0.29369348 -2.13353876 -1.68202681
H -0.29247856 1.85377029 1.22893213
H 0.49578713 0.77034390 2.11517613
