9

O 0.89075863 0.66572714 -1.4748112
C 0.08379701 0.018255481 -0.4644414
N -0.4591202 0.24057317 1.5617329
N -0.76980704 -0.9592825 -0.37491474
N 0.33453158 0.75777644 0.5853213
C -1.08043 -0.7644226 0.95163953
H 1.6474051 0.11267377 -1.737472
H 1.1429253 1.3227108 -0.51823294
H -1.7900602 -1.3940115 1.4711785
