9

N 0.30200516 0.18607332 -0.93425943
C 0.93649633 -0.10188533 0.23557674
C -0.00759083 -0.38634295 1.18399408
C -1.33586549 -0.21894360 0.63285741
N -1.04971530 0.18860368 -0.60705217
H -1.70920670 0.28946636 -1.36282494
H 0.64567575 0.84624703 -1.61781492
H 2.01867204 -0.09851481 0.27191296
H 0.19952929 -0.70470377 2.19761023
