11

O -0.6363036 2.2694585 0.21673661
C -0.27178124 1.138962 0.0658173
C -0.3867318 0.10970532 -1.034035
N 0.42858842 -0.81783944 -0.19174974
C -0.9946459 -1.1807443 -0.5648129
C 0.5862911 0.17989935 0.91306794
H -0.16627531 0.3083757 -2.0791576
H 1.2122566 -1.344063 -0.5532234
H 0.21058606 -0.18734804 1.8702109
H -1.5932391 -1.0278817 0.34343326
H 1.6112547 0.5514757 1.0137128
