11

O -2.2947655 -0.62145925 -0.42538843
C -1.1525291 -0.37291583 -0.1621912
C 0.11404741 -1.21336 0.04303595
N 0.7584717 -0.04972163 0.73014224
C 0.85709774 0.9812831 -0.28505766
C -0.44174233 0.8121166 0.41372222
H -0.064751185 -2.0405066 0.7359946
H 0.6577945 -1.5794142 -0.8344852
H 0.95760524 0.696739 -1.3309264
H 1.4549791 1.8374437 0.016539805
H -0.84620774 1.549795 1.0986142
