10

N -1.599995 0.8249436 -0.49211895
C 1.4444599 -0.69985867 0.47618097
O 0.16423205 0.27686307 -1.8297966
N 0.2446491 -0.17080355 0.43375322
C -0.36655876 0.31191182 -0.7379649
O 1.6952416 -1.0260204 1.678017
H -2.0376363 0.7249675 0.40703464
H 0.48260486 -0.49839678 1.7080764
H 2.129217 -0.8438954 -0.35796663
H -2.1562142 1.1002889 -1.2852154
