10

N 0.91619074 -0.82571659 1.54765955
C 0.01009283 -0.01977897 0.93070907
O -0.79281637 0.67739627 1.51628918
N 0.13708694 -0.12514463 -0.48209304
C -0.69470173 0.57952195 -1.13651211
O -0.71098120 0.58772855 -2.46527684
H 0.97729632 -0.79295796 2.55019122
H 1.61649725 -1.29940330 1.00160404
H -1.45355253 1.22676471 -0.70053491
H -0.00511226 -0.00841034 -2.76203611
