11

N -2.001083 -0.5248355 -1.9138409
C -1.5752609 0.027462453 -0.99255943
C -0.99857527 0.6975125 0.1904465
O -0.31380314 -0.20441665 1.0289965
C 0.80455863 -0.82207656 0.437263
C 1.8559258 0.1538661 0.084313296
N 2.6535785 0.9419217 -0.1938814
H -1.802028 1.1191024 0.79486114
H -0.34584117 1.514137 -0.14808947
H 1.19352 -1.5203282 1.1791608
H 0.52900785 -1.3823452 -0.46666974
