11

N -1.56048810 0.47298509 -1.68025529
C -1.22704718 0.56566825 -0.49947794
C -0.81713097 0.80749426 0.72619697
O 0.17859937 0.14263938 1.39688791
C 0.91812376 -0.77702426 0.63281499
C 1.79619658 -0.13071984 -0.36559928
N 2.49991943 0.35440599 -1.14290963
H -2.30540720 -0.20137597 -1.86443830
H -1.28160065 1.57705130 1.33214954
H 1.53918277 -1.32234122 1.34625864
H 0.25965149 -1.48878294 0.11837269
