11

N -0.2938335 -0.15947813 -2.3169343
C 0.59618515 1.6610494 0.4704983
C -0.48658335 -0.7214472 -1.3224825
O -0.6623735 -0.25802854 1.002107
C 0.53047484 0.4033133 1.0900637
C -0.69138026 -1.289588 0.027483908
N 0.6530852 2.8362443 0.19026932
H 0.08495717 -2.037559 0.2301457
H -1.675594 -1.7583952 0.08586188
H 0.50298357 1.4980614 -0.6701456
H 1.4420788 -0.17417261 1.2131325
