11

O -1.5019131 -1.0447042 0.38181242
C -0.16626337 -0.7723214 0.06900336
C 0.029210435 0.23290783 -1.0930496
N 0.7616842 1.0789876 -0.14846836
C 0.50233597 0.30605462 0.9474277
O 0.6765632 0.444891 2.1320548
H -1.563177 -1.1269777 1.3435657
H 0.43501037 -1.6844482 -0.037162498
H 0.6301821 -0.115609474 -1.9360754
H -0.9170041 0.65802443 -1.4353955
H 1.1133714 2.0231955 -0.22371274
