11

O 1.0634941 -1.3248261 -0.47494873
C 0.29462454 -0.19477004 -0.52424604
C -1.2831812 -0.06986486 0.19451147
N -0.7975552 0.99237233 0.9694833
C 0.57986385 0.86675906 0.52005374
O -2.3814335 -0.36545306 -0.23490281
H 0.8668468 1.8129995 0.039715976
H 0.12507962 0.1978705 -1.5308911
H 0.9551393 -1.8413 -1.2813292
H 1.320203 0.6237147 1.2898164
H -0.7430813 -0.6975022 1.0327369
