11

O 0.74273646 -2.2005258 -0.7514081
C 0.19526422 -0.9840411 -0.67600614
C -1.2582092 1.2348144 0.08612242
N -0.03507188 1.0013282 0.5613975
C 0.7425201 -0.13009912 0.29177648
O 1.7734429 -0.40031603 0.9400158
H -0.42426825 -0.688492 -1.5123721
H 0.36494267 1.5879722 1.2933782
H -1.5050099 0.9988633 -0.93616825
H 1.3370724 -2.255742 0.020117028
H -1.9334197 1.8362381 0.683147
