11

O -1.77804218 -1.86920195 -0.82813749
C -0.71290156 -1.06926863 -0.57453803
C 1.37618039 0.98211674 -0.36377995
N 0.42383457 0.64422874 0.45026464
C -0.78244755 -0.05065262 0.27459307
O 0.57581031 1.15590745 1.73137904
H -0.22650176 0.84069755 2.16018753
H 0.15736149 -1.41606809 -1.13955282
H 1.26388159 0.71644353 -1.40806929
H -2.50658601 -1.48125304 -0.32544547
H 2.20941076 1.54705017 0.02309861
