10

O -2.0696583 0.53569055 -0.43390128
C 0.23232093 0.38640806 0.15470979
C 0.50075525 -0.93254507 -0.4765667
N 0.11288389 -0.85391206 0.91848373
C -1.053063 1.1033223 -0.12189852
H 1.0877643 1.0337375 0.34096596
H -1.0015681 2.2088747 -0.040887542
H -0.25979894 -1.3573123 -1.1273304
H 0.9175415 -0.96794105 1.524979
H 1.5328228 -1.1563227 -0.7385542
