10

O 0.79789364 1.9308462 -0.75789106
C 0.35659572 0.88854235 -0.37670618
C -0.92799 0.44209698 0.32827199
N -0.50891036 -0.9552443 0.09626097
C 0.83179605 -0.566487 -0.39131743
H -0.9536658 0.76767087 1.3776901
H -1.8705678 0.7270417 -0.15126777
H -0.49432608 -1.5219002 0.93481356
H 1.6637625 -0.73222643 0.30785984
H 1.1054119 -0.9803405 -1.3677139
