10

O 1.4006219 -0.88184035 0.3674986
C 0.92034173 -0.08758484 -0.5999994
C 0.36961412 1.0591753 0.23419549
N -0.29938427 -0.23592073 0.65987986
C -0.46633777 -0.6953092 -0.761815
H -0.32521144 1.7872592 -0.18448952
H -1.2614678 -0.16861214 -1.2964605
H -0.9049897 -0.4460527 1.4519718
H -0.48558965 -1.7804043 -0.8571839
H 1.0524027 1.4492897 0.98640263
