11

C 1.2341087 -0.011991979 0.87779206
C -0.018813098 0.69365406 0.42703882
C -1.304904 -0.624077 -0.6629539
C -0.34638977 0.44277644 -1.1329654
O -0.632256 1.5176345 1.0346321
N -0.18935096 0.48389766 -2.3116589
H -1.0594388 -1.6689515 -0.8176401
H 1.5322349 -0.8007476 0.18571173
H 1.0737199 -0.41279376 1.8816526
H -2.324403 -0.35085058 -0.41199923
H 2.0354922 0.7314496 0.9303902
