11

C -0.07542366 1.07215991 0.92469022
C -0.10509843 -0.42818936 0.78133762
C -0.15517436 -1.00119764 -0.64542759
C 0.52126440 -0.17392836 -1.64598111
O -0.12896639 -1.19023930 1.71554182
N 1.06198007 0.49548231 -2.41462711
H 0.27310651 -2.00866768 -0.63093827
H -0.19703879 1.34583873 1.97360120
H 0.87808268 1.45832526 0.54935698
H -1.21011406 -1.10217797 -0.92554017
H -0.86261811 1.53259434 0.31798651
