10

O 0.9122054 -2.785949 0.23333095
C -0.3205521 0.67276603 0.22334044
C -0.5915449 1.7835305 -0.6835432
N 0.33067185 2.0385072 0.11352125
O 1.1497228 -0.46406767 -1.274682
C 0.3658386 -1.7707822 0.57019436
C 0.4733758 -0.49754602 -0.27448684
H -1.1396391 2.2127922 -1.5094364
H -0.23922686 -1.6968606 1.4978095
H -0.9408513 0.50760925 1.1039516
