10

O -2.3873649 0.9557066 0.4032215
C -1.7694864 -0.058407135 0.6254895
C -0.3575051 -0.22385027 0.21223475
N 0.27383465 -1.3415846 0.4653995
O 1.5361658 -1.176284 -0.031621628
C 1.6383927 0.049012993 -0.5765964
C 0.47125825 0.71857536 -0.46103716
H -2.2129433 -0.9247395 1.1488835
H 2.6026833 0.2894108 -1.0020524
H 0.20496476 1.7121598 -0.78392106
