10

O -2.384171 0.9599603 0.4046693
C -1.7674271 -0.053958386 0.62388927
C -0.35793534 -0.22536536 0.20972082
N 0.2705459 -1.3448728 0.4659537
O 1.5326846 -1.1775451 -0.028025722
C 1.6379489 0.047686003 -0.57631147
C 0.47216558 0.71701485 -0.46423477
H -2.208452 -0.9213811 1.1499535
H 2.6030993 0.28767815 -1.0009769
H 0.20154083 1.7107837 -0.78463775
