11

O -1.8015176 0.65719646 -1.6425698
C -1.1612998 0.026941001 -0.8657072
O -1.213751 -1.3155941 -0.6082172
C -0.21760464 -1.2405142 0.45511684
C -0.044735502 0.23645128 0.140353
C 1.1257794 1.1003996 0.06765171
O 0.08868269 1.2991778 1.0282104
H 0.63252926 -1.8933177 0.24681231
H -0.66308343 -1.4623507 1.4264613
H 1.1860384 1.8516555 -0.7181113
H 2.068962 0.7399552 0.46999982
