10

O 1.2513627 -1.3884928 0.98927
C 0.35850433 -0.9478766 0.01546387
C -0.016005076 0.4973529 0.22097237
O 0.42432913 1.1476761 1.1442671
C -0.9807895 1.1515601 -0.7586419
O -1.4540465 0.55864555 -1.6927903
H 1.40531 -0.6399059 1.5840899
H 0.781783 -1.0499175 -0.99569565
H -0.56880677 -1.5418172 0.020461773
H -1.2016412 2.2127752 -0.527397
