10

O 1.6934019 0.42467266 0.7329978
C -0.2797949 0.63269484 -0.6137206
C 0.64482397 -0.022044096 0.38257188
O 0.32412753 1.7553958 -1.1883136
C -0.9390758 -1.7055112 0.6114114
O 0.24081004 -1.2429825 0.97331923
H -0.9950431 -2.640489 1.2134886
H -1.2138684 0.8873185 -0.08934226
H 1.072015 2.001838 -0.6279776
H -0.5473964 -0.09089289 -1.3944347
