10

O -0.016707903 -1.831963 -0.8673837
C 0.9682428 1.3052499 0.8630403
C -0.42831305 -0.8995224 0.083227746
O -0.28353468 1.5025735 0.73542726
C -0.049677897 0.50133747 -0.3703578
O -0.019304194 0.85612184 -1.5115237
H 1.4573274 2.0254254 1.5414749
H -0.14157031 -1.4189953 -1.7332851
H -1.5241656 -0.88761383 0.22117871
H 0.037703335 -1.1526134 1.0382015
