9

N -0.6851864 1.6164767 0.1439531
C -1.2658591 0.81609136 -1.6675025
O -0.20786022 -1.9679447 -0.6125944
C -0.67877334 0.33554804 -0.56161934
C 0.0068653165 -0.8985136 -0.08432584
C -0.23011756 2.07374 -0.9566473
N 0.85192 -0.68597704 0.9540758
H 1.3064997 -1.4923773 1.3570864
H 0.9025115 0.20295629 1.4275742
