9

N 1.22906496 -1.27586775 -0.08428666
C 0.46287322 -0.23642811 -0.78142697
O -0.91785002 1.67070763 -0.78900737
C -0.40548044 0.79231517 -0.13025827
C 0.64830733 -0.76468099 -1.99700451
C 0.59390973 -2.06254564 -0.83827161
N -0.52883386 0.62955048 1.20104719
H 0.00510240 -0.05393845 1.71082465
H -1.08709355 1.30088764 1.70838327
