10

O -0.53873956 0.7049708 1.8907815
C 0.899171 -0.7400895 0.63567674
C -0.78170264 0.58901733 -1.6389482
N -0.85902256 0.44037277 -0.38158107
N 1.6852193 -0.44675505 -1.6422249
C -0.2132208 0.16128641 0.70277596
N 1.4790375 -0.674825 -0.54821455
H 1.2447599 -1.4318085 1.3864374
H -1.6222461 0.10382545 -2.161253
H -1.2932559 1.2940054 1.7565501
