10

O 1.74076821 0.66579216 0.57827920
C 0.10303789 -0.43790026 -2.21032278
C 0.53436492 0.18223720 0.17879747
N -2.59213057 -0.93882772 0.86983069
N -1.55560385 -0.53318635 1.06471104
C -0.37121349 -0.06340966 1.28266741
N 0.24419962 0.00148959 -1.04026816
H -0.35983590 0.33839593 -2.84392678
H 2.33275015 0.67482648 -0.18762600
H -0.07633726 0.11058253 2.30785802
