11

O 0.8939842 0.6273184 -1.4715321
C -0.011164154 -0.060011536 0.29248887
O 2.1461287 -1.0841662 -0.57011956
C -0.26009396 -0.022779934 1.7387837
C -0.337065 0.96822584 -0.78185964
C 1.2113347 -0.34953198 -0.570202
O -0.84561247 -1.2245291 0.5233015
H -0.3361436 2.003457 -0.4349492
H -1.2050065 0.7567803 -1.410811
H 0.52026004 -0.65644187 2.1925254
H -1.7766219 -0.95832103 0.4923738
