9

N -0.45653316 0.7043767 1.000716
C 0.43333435 -0.98304516 -0.5505685
C 0.67221284 0.116912164 0.41596055
C -0.42898226 -0.26335844 -1.1798214
N -1.5180743 0.91782445 0.40567037
H -0.38585097 0.8550503 2.0132926
H 1.6506196 0.5324395 0.6332521
H -0.9184593 0.05119942 -2.0816288
H 0.95173305 -1.9313987 -0.6568733
