11

O 1.15514022 0.77793683 -2.15693091
C 0.39943379 -0.58625954 -0.25017543
C 0.87982712 0.66170334 -0.82473731
N -0.33759647 -0.56549383 0.93568822
C -1.60256737 -0.30530687 1.13459660
O 1.74059602 -0.12375291 -0.02968321
H -2.06400670 -0.56691836 2.07764112
H 0.18439498 -0.95468066 1.71949065
H 1.17104740 -0.11798353 -2.51796526
H -2.17511739 0.13487040 0.32692917
H 0.64884839 1.64588509 -0.41485394
