11

O 1.5690175 -0.5452 -1.9577606
C 0.33755597 -0.6495669 0.17307267
C 1.0838099 0.07700587 -0.84354305
N -0.5558877 0.035027795 0.9995144
C -1.7813388 0.42648622 0.7705099
O 1.6857963 -0.21102351 0.39928722
H -2.1528423 0.40062088 -0.24694397
H 1.500938 -1.4956545 -1.798784
H -0.22239932 0.09402535 1.9605516
H -2.4126992 0.72903574 1.595463
H 0.94804966 1.1392429 -1.0513673
