11

O -0.62428063 0.33907655 -0.9857645
C -1.7533482 -0.0046626334 -0.17636338
C 1.4206272 0.43927324 0.49217555
O -0.9369709 -0.5369221 0.8567211
C 0.14781074 -0.14444192 0.071583495
N 1.3030131 -0.9226344 -0.09381781
H 1.8220245 1.2386812 -0.12790237
H -2.3168435 0.87747365 0.13946484
H 1.6037674 -0.97731596 -1.0606017
H -2.3867264 -0.75652874 -0.6509144
H 1.720927 0.4480011 1.535419
