11

O -1.30873828 -0.42438414 0.08528243
C -1.43966174 0.79036180 -0.63879416
C 1.08738783 -0.44663143 1.03512680
O -0.02260439 0.96104874 -0.74317239
C 0.06791339 -0.20737661 0.01477794
N 0.99915143 -1.22797778 -0.22730178
H -1.91153536 0.65788710 -1.61421971
H -1.90770424 1.58589446 -0.05270300
H 0.86811631 -1.02283827 1.92872555
H 1.87207238 0.30177986 1.12904267
H 1.69560292 -0.96776370 -0.91676409
