11

O 0.52084875 0.71769756 0.9931805
C 0.76958287 1.2944586 -0.23389527
C -1.3166908 -0.42321384 0.405884
O 0.47074282 0.16455613 -1.0879362
C 0.013970263 -0.5875589 -0.035286702
N 0.2808694 -1.8611524 0.16287635
H -2.0771751 0.04761645 -0.2147257
H 1.817916 1.5771532 -0.37890205
H -1.5920876 -0.873093 1.3524241
H 0.11542633 2.1429908 -0.4821205
H 0.9965969 -2.1994545 -0.4814985
