9

O 1.2076206 1.7407824 0.2913957
C 0.4303784 1.0753316 -0.67700213
C -1.8343767 -3.1349494 1.303271
C -0.25787356 -0.11502547 -0.15651764
C -0.7694627 -1.0946933 0.31169266
N -1.335703 -2.1746054 0.8294878
H -0.30878198 1.8055211 -1.01935
H 1.8362154 1.1133096 0.66842943
H 1.0319833 0.78432906 -1.5514067
