9

O -0.24198051 -1.2144161 1.7591757
C -0.18885665 0.12673156 1.335815
C 0.11536637 0.26296502 -0.10122423
C 0.3378085 0.33242086 -1.2828745
C 0.5978553 0.41584867 -2.640964
N 0.8118593 0.48270944 -3.77958
H -0.9149969 -1.6739568 1.2412755
H 0.6047314 0.6006926 1.9193374
H -1.1217867 0.6670047 1.5490396
