11

C 0.11532409 -0.5553066 0.4892081
N 0.89473504 0.38313752 0.0016102672
C 0.42444238 1.537094 -0.7635032
O -1.1644297 -0.48721284 0.26008967
C -0.93950975 -1.9024681 0.78645
O -0.99674755 -2.8533034 0.057830334
H -1.1202234 -1.8721292 1.8650223
H 0.5672008 2.4563742 -0.19251247
H 1.8845867 0.29444718 0.17660683
H 0.9736709 1.5950409 -1.7059591
H -0.6390494 1.4043264 -0.97484297
