10

O -0.5662666 -1.8785858 -0.78625923
C 0.21199727 -0.99021614 -0.0452472
C -0.31345558 0.4207945 -0.148076
O -1.2890139 0.6921534 -0.81340444
C 0.40460703 1.5251102 0.60815394
O 1.376562 1.318639 1.2834055
H -1.2660571 -1.358959 -1.2079414
H 0.2365349 -1.2687551 1.018963
H 1.2590678 -0.9876874 -0.38535604
H -0.053975657 2.5275066 0.47576198
