10

O 0.22170077 -0.25510234 1.7078642
C -0.20399901 1.0969259 -1.1210134
C -0.34978053 -0.05957092 -0.17303652
O -1.5354774 -0.36318645 0.1992045
C 0.77493167 -0.72684973 0.51169205
O 0.869574 1.4367034 -1.5503489
H 0.8216629 -1.8212532 0.39032242
H -1.1615835 1.5806258 -1.3892478
H 1.7322398 -0.2649503 0.23111801
H -1.1692686 -0.6233421 1.1934453
