14

C -0.30192965 -1.8878506 1.3190544
N 0.7851207 -0.98175925 1.0354905
C -0.2507044 1.6235785 -1.3248171
O 1.8959681 0.6143877 0.25542834
N -0.3159031 0.5130338 -0.49860138
C 0.73873544 0.058367822 0.24404292
N -1.2693241 1.9820554 -1.9909807
H -1.051601 2.8032243 -2.5478485
H -1.2029958 0.03144813 -0.46159163
H -1.129285 -1.3933191 1.8473513
H -0.69852465 -2.3528838 0.4052446
H 0.73534787 2.093118 -1.3045619
H 1.9951595 -0.41199407 1.0582433
H 0.06993655 -2.6914065 1.9635447
