14

C -2.3927922 -0.07657517 0.9724604
N -1.352437 0.13804556 -0.015124038
C -0.034982942 0.03884446 0.34423587
O 0.35368866 -0.071557455 1.4919411
N 0.84362656 0.10423527 -0.7359328
C 2.216554 0.0036914533 -0.5919777
N 2.965775 0.10937924 -1.6123128
H -2.0361714 0.29483965 1.9338155
H -2.6520746 -1.136413 1.0829362
H -3.287295 0.48006943 0.68165815
H -1.599165 -0.023291558 -0.9791041
H 0.51842034 0.30419606 -1.6717346
H 2.5184321 -0.17169784 0.44164473
H 3.938422 0.006233919 -1.3425059
