14

C -1.12924879 0.34618165 -1.96577785
N -0.40635566 0.64485112 -0.82510297
C -0.07994095 -0.30785032 0.13662214
O -0.45057847 -1.46462293 0.06056318
N 0.66512795 0.19263897 1.17185588
C 1.20437099 -0.71029327 2.17091807
N -1.43572994 1.27438530 -2.77651169
H 1.33692985 -0.16668241 3.10992540
H 0.49222446 -1.52228939 2.32380801
H -0.19540907 1.62419823 -0.68710124
H -1.36552622 -0.71597595 -2.05043026
H -1.95876376 0.88973680 -3.55663688
H 1.15842250 1.05904848 1.02209431
H 2.16447763 -1.14332625 1.86577390
