11

O 1.224101 1.8698373 -1.5710235
C 1.1257195 0.65543926 -1.5586889
C -0.8791697 -0.11155235 1.2611377
C 0.14366856 -1.4215297 -0.35731333
N -0.65128624 -1.3541138 0.80348045
C 0.37286478 -0.06174327 -0.55052245
N -0.25516257 0.70307696 0.43684325
H 1.606439 0.013986792 -2.316603
H -1.019373 -2.1784363 1.2531085
H -0.2128703 1.7128621 0.4716739
H -1.4549313 0.17217273 2.1279073
