11

O 0.4614267 -1.0943767 -2.3337948
C 0.80715173 -0.14827591 -1.6593082
C 0.26698238 0.10905416 -0.33640128
C 0.4719508 1.0741276 0.6238484
N -0.31114647 0.8378914 1.7141335
C -0.98537713 -0.2564435 1.4249299
N -0.6753868 -0.7368284 0.20249994
H 1.5630233 0.57901675 -2.0170674
H 1.1418748 1.9211938 0.58376133
H -1.708248 -0.7345814 2.0723546
H -1.0322514 -1.550778 -0.2749559
