10

C -0.28332663 0.07482915 1.7598191
O -1.4472258 -0.2006523 -0.6235197
C 0.465867 0.5247477 -1.8117634
O 0.45181784 0.2347349 0.5390226
C -0.27471128 0.09532383 -0.574586
O 1.0024425 -0.5560379 -2.3274555
H -0.61775887 -0.9596359 1.8654214
H 1.4397355 -0.29140127 -3.1519525
H 0.4151194 0.33916682 2.5544913
H -1.1519598 0.7389249 1.7705225
