10

C -0.9901931 0.38240433 -1.3123075
O -0.5366617 -0.39517525 -0.19448242
C 0.5232359 0.096691824 0.43464705
O 1.1144791 1.1084077 0.14840662
C 0.96295035 -0.7638134 1.6143537
O 0.40604493 -1.772413 1.9457293
H -1.849434 -0.15792239 -1.7065964
H -1.279475 1.3849084 -0.98707235
H -0.20303053 0.46129718 -2.0665345
H 1.852084 -0.3443855 2.1238565
