11

C 0.93684953 1.091257 -0.76783216
N 0.08825427 0.13617337 -0.08729976
C 0.3799558 -1.0694277 0.42413023
N -0.69733214 -1.6133131 0.95959955
C -1.6389927 -0.6646817 0.73643655
N -1.2172786 0.41251808 0.10680504
H 0.5742152 1.2442513 -1.7863096
H 0.9197132 2.0406792 -0.2290892
H 1.9566213 0.70108026 -0.7952495
H 1.3678997 -1.507453 0.38897455
H -2.6699054 -0.7710837 1.0498344
