9

N 1.965485 0.7660189 -1.5795215
C 1.1335473 -0.02145467 -1.3811148
O -1.6083351 -1.1946349 0.92922294
C -0.018930085 -0.73495173 -0.71071094
C -0.7613522 -0.42328522 0.547401
C 0.26279274 -1.4251142 -1.7622675
N -0.39638627 0.7232816 1.155897
H -0.872354 0.9581844 2.0153813
H 0.2955328 1.3519558 0.7857126
