10

N 0.5569161 -0.032821976 -1.1839825
C -0.8263175 0.4174836 0.9341244
O -0.09909756 -0.8541348 0.8664494
C 0.5405777 -0.9892109 -0.25868803
C 0.6060736 1.3026719 -0.6382126
N 0.051050585 1.4645089 0.51041913
H -1.6984897 0.30207473 0.27379534
H 1.0936115 -1.9204264 -0.3652883
H -1.1251223 0.51010203 1.9767231
H 0.90079755 -0.20024711 -2.1153402
