10

N -0.18743533 1.2038189 -0.5219328
C -0.31554773 -0.12259321 -0.9120752
O -0.95050883 -0.8802347 0.05460927
C -0.20627202 -0.39445284 1.2111145
C 0.8151347 0.27203768 0.28073105
N 1.551991 -0.331504 -0.53907734
H 0.14951056 -1.252605 1.7808985
H -0.4303589 -0.50070256 -1.924681
H -0.7907302 0.3129966 1.7962039
H 0.3642167 1.6932391 -1.2257909
