9

O 1.7022092 0.4913833 0.058910742
C 0.21067056 -1.1968725 -0.7568329
N -0.7159571 -0.85688597 -1.4961566
N -0.460404 0.5546768 0.88243645
N -1.6097538 0.74086946 0.39806727
C 0.48113558 -0.026144791 0.14614005
H 0.912204 -2.0388572 -0.7741192
H -2.2179525 0.9102681 1.2087617
H 1.697848 1.4215628 0.33279246
