9

O 0.04724436 0.78014231 1.61344794
C 1.35014982 0.38203643 -0.38848295
N 1.34799058 -0.75540701 0.17360126
N -1.09218466 -0.29359036 -0.08740503
N -1.08128500 -0.66031313 -1.27147454
C 0.18935691 0.15094578 0.40282785
H 2.00399848 0.97871003 -1.00849983
H -2.03880884 -0.97871281 -1.48253018
H -0.72646191 0.39618890 2.04851530
