10

O 1.2421774 0.629469 -0.55256635
C -0.74282014 -0.91109407 -0.024711354
N 2.303983 -1.2915584 0.5637652
C 1.5211135 -0.5252999 0.15902667
C 0.090955995 1.2464135 -0.22937132
N -0.8955585 0.44959095 0.08138775
H 0.089357324 2.3144553 -0.06824421
H -0.4296242 -1.2620779 -1.0015962
H -1.6865305 0.84577316 0.57479155
H -1.4930542 -1.4956715 0.49751812
