10

O -0.13307877 0.7591042 1.2793763
C 1.0254908 -0.091865174 -1.1259267
N -2.0442107 2.0490732 0.42507318
C -0.11498623 -0.61334616 0.9561039
C -1.1499043 1.4259694 0.8122357
N 0.4100441 -0.8705105 -0.25048324
H 0.3697173 -1.855288 -0.486964
H 1.1244079 0.9657741 -0.9213088
H -0.9382394 -1.2127262 1.3160267
H 1.4507594 -0.55618477 -2.004133
