10

O 1.6660184 -0.12800553 -1.4466896
C 1.1603019 0.78929657 -0.8445302
N 0.27539253 0.64716834 0.18848749
C -0.21369623 -0.65880513 0.5750015
C -1.6476508 -0.81721115 0.28538337
N -2.7786763 -0.91743827 0.07623987
H 1.3798817 1.8511823 -1.0577809
H -0.15046495 1.472064 0.5836987
H 0.35733956 -1.3925896 0.00031762422
H -0.04844556 -0.84566176 1.6398721
