9

N -0.8073613 1.8450464 -0.12580545
C -0.10955473 0.8118185 -0.34974235
N -0.23613766 -0.30949023 0.45565653
C 0.4807085 -1.4716736 0.29844746
O 0.36447445 -2.4399416 1.0080476
H -0.59954923 2.5743566 -0.79957736
H 0.6281276 0.6822283 -1.1488018
H -0.9040007 -0.26264146 1.2166225
H 1.1832931 -1.4297029 -0.55484676
