9

N -0.3666159 0.27667257 -0.0800638
C 0.17731477 1.4106953 0.2823284
N -0.49694535 -1.9860333 -0.4775674
C 0.19116735 -0.9946242 -0.09600916
O -0.69152075 2.3314388 0.1427152
H 0.06211652 -2.8358965 -0.4247488
H 1.1892926 1.5901814 0.6446535
H -1.300774 1.2399564 -0.23175555
H 1.2359648 -1.0323904 0.24044761
