9

O -0.63500696 -0.5542692 1.3781174
C -0.473996 0.62270635 -0.26075247
C 0.55452436 -0.875326 1.1996982
O 1.1770433 -0.3576154 0.24267428
C -0.13386944 0.39755887 -1.6565579
N 0.04368946 0.25143403 -2.7901719
H 1.0676106 -1.5763991 1.8663113
H -1.5538713 0.5642273 -0.13872792
H -0.046124045 1.527683 0.15940906
