13

C 1.16823931 -0.78234924 -1.05389033
N -0.58170058 -0.09574698 0.46256208
C 1.00841604 -0.28271076 0.19608364
O 0.06840311 -1.01766688 -1.90273125
C -0.88361061 1.28339479 0.90376192
O 1.69676928 0.07456675 1.14311121
H 0.05381722 -1.96811075 -2.08563788
H -1.04874450 -0.34454184 -0.41149419
H 2.16197850 -0.93571611 -1.46064837
H -0.83277163 -0.76439910 1.19046305
H -0.72209812 1.95659938 0.05931580
H -0.17596392 1.52549386 1.69873071
H -1.91273405 1.35118656 1.26037313
