9

O 0.65090991 -0.53477322 -1.66589916
C 0.05349324 -0.56548601 -0.41525535
C -1.38670065 -0.07542591 -0.46650642
O -1.41565962 0.80241855 0.52187620
C -0.12395167 0.95596330 1.09810464
N 0.76817230 0.23628380 0.59743834
H 1.53586374 -0.90940559 -1.57597063
H -0.01597137 -1.58873717 0.00466419
H -0.06615590 1.67916201 1.90154807
