11

O 1.6813211 0.6664429 -0.51435876
C 0.76214993 -0.045866434 0.25001776
C -0.33828312 0.6903624 1.0439008
O -1.3526139 -0.14770176 0.41737118
C -0.42347854 -0.6861029 -0.43960476
N -0.5590169 -1.3785954 -1.476895
H 1.262902 0.90089333 -1.3522587
H 1.318066 -0.75514907 0.8695545
H -0.3460829 0.57153517 2.1289718
H -0.46444613 1.7382967 0.75589526
H -1.5405177 -1.5541146 -1.6825944
