11

O -0.02394066 -0.7553567 1.3456223
C -0.24525626 0.4344776 -0.5221291
C -0.7516082 -0.7933832 0.104542054
O 0.92419213 0.82252693 -0.077883705
C 1.1887323 -0.19354454 0.9848848
N -1.1907083 0.97970855 -1.210553
H -1.8705634 0.016079906 -0.6270826
H -1.0460794 1.7406619 -1.8702549
H 1.8846983 -0.92118233 0.54422116
H 1.634142 0.3529797 1.8187445
H -0.50360864 -1.6829679 -0.49011162
