10

O 1.66922156 -1.34255483 -0.54427337
C 0.84165866 -0.56429106 -0.20153882
C -0.28450628 0.11118065 1.70837398
O 0.88531430 -0.12657966 1.16252825
C -0.26655863 -0.00544761 -1.09046716
O -0.82119679 1.21067043 -0.70588393
H -1.00281985 -0.82037915 -1.18239480
H -1.21305304 1.04218494 0.17325087
H 0.19834217 0.12916111 -2.07266851
H -0.00640219 0.36605523 2.75307372
