11

N 1.30542458 -1.11125139 -1.03605069
C -0.98570978 -0.54932747 -0.45638143
C 0.52518417 -0.45574640 -0.30865920
O 1.04697640 0.37752632 0.71514825
C 0.43632303 1.53597618 0.85333695
O -1.72396736 -0.07850942 0.62883073
H -1.23260979 -0.04556448 -1.40357510
H -1.21459637 -1.61159436 -0.58134557
H 2.28030683 -0.93944665 -0.79341841
H -1.47558072 0.85804292 0.72913809
H 1.03824899 2.01989460 1.65297650
