11

N 0.6868779 -1.2493445 -1.4070363
C 0.7308588 1.6174024 0.35726663
C 0.32893497 -0.49851424 -0.47125265
O -1.2008862 0.027859604 1.3895148
C -1.0600736 -0.5809287 0.14294834
O 1.2456956 0.4396692 0.07110705
H 1.6497074 -1.0682032 -1.6879809
H -1.7541999 -0.18765238 -0.615626
H 1.6237465 2.1808617 0.7053765
H -1.2770872 -1.6461141 0.2641969
H -0.97357416 0.96496415 1.2514855
