9

O -0.51430152 1.40284581 -1.00326382
C -1.03876697 -0.43655138 0.53377562
N -0.27485020 -1.40103284 1.11338908
N 0.95599590 -1.26711571 0.75875471
N 1.00902563 -0.19950865 -0.07273307
C -0.21453605 0.34366798 -0.23644496
H -2.10182336 -0.35150520 0.69593343
H 1.89461912 0.05989999 -0.47882414
H 0.28463778 1.84930019 -1.31058674
