12

N -1.1709352 0.6606394 0.8406307
C 0.2773564 0.96235156 0.67348945
C 0.3795684 0.10161678 -0.560164
C 1.5149643 -0.021913383 -1.4112316
N -0.2525423 -1.0886643 -0.1110576
C -1.2130214 -0.6907657 0.71128756
N 2.4181862 -0.08464325 -2.1338034
H 0.8665363 0.6265791 1.5401433
H -0.16967963 -1.9929204 -0.5472124
H -2.0474963 -1.3193241 0.9977804
H 0.41604736 2.0252817 0.4866645
H -1.018984 0.82176274 -0.48652652
