10

N -1.1491903 1.2036608 0.48153475
C 0.61485803 -0.2828057 -0.0766829
O -1.6610243 -0.7726598 -0.56127375
C -0.86534405 0.013074933 -0.08362201
O 1.4982504 0.51664484 0.41839513
N 1.2061728 -1.3298726 -0.5474868
H 0.71255577 -2.096736 -0.9849534
H -0.40569708 1.773272 0.85292417
H 2.160053 -0.52316964 -0.03989886
H -2.110634 1.4985907 0.5410636
