10

N 1.567726 0.36137953 -0.5864528
C -0.3967069 -0.3493676 0.7494045
O -1.5924244 -0.47138438 0.851381
C 0.30341056 0.20808557 -0.47126305
O 0.48314154 -0.69085723 1.705839
N -0.5776167 0.52587813 -1.4371167
H -0.2513556 0.9677979 -2.2773464
H 2.0448117 0.048826866 0.2557024
H -0.020198593 -1.0361345 2.4591753
H -1.5607879 0.43577567 -1.2493234
