11

O -1.2732388 -0.18008259 1.9312352
N -1.1658174 -0.7666141 0.6738926
C -0.23934115 -0.22834636 0.0070507163
C 0.29393095 -0.4654781 -1.3771852
O 1.2579744 0.58562744 -1.1738816
C 0.7909762 0.8572276 0.16215767
H -1.9997052 -0.67110026 2.3322191
H -0.394409 -0.243517 -2.1993322
H 0.7705781 -1.4374936 -1.5459104
H 1.5619831 0.67540765 0.9193288
H 0.39706868 1.8743694 0.27042502
