11

O -1.3919764 -2.1240346 0.42936128
N -1.2690234 -1.0009469 -0.14345576
C 1.0284628 -0.23371676 0.6890837
C -0.26669937 -0.19244047 -0.04819564
O 1.3504517 1.0720953 0.15046252
C 0.11182366 1.1603576 -0.581075
H 0.2820047 1.2345228 -1.6623085
H 1.7456189 -0.9988368 0.3698793
H 0.96428573 -0.22264093 1.7836273
H -0.5023749 2.006094 -0.24694407
H -2.0525737 -0.70045346 -0.740435
