10

C 0.26391491 0.90788465 0.20648928
O -0.55616325 1.64565314 -0.64434881
C 0.16684927 -0.42492967 0.21657339
O 0.78439229 -1.22834637 1.11773611
N -0.54339981 -1.15737788 -0.71750007
H 0.91620404 1.44489992 0.89021040
H -0.00029729 2.01217770 -1.34479822
H -1.01117534 -1.96010366 -0.31557814
H -1.16810622 -0.55504768 -1.23507787
H 1.14778161 -0.68481040 1.82629403
