10

C -0.6001593 0.47226453 0.594406
O 1.6236078 -0.35506934 0.7818334
C 0.4802878 -0.12974419 0.088306196
O -1.7819219 0.48676574 -0.14314593
N 0.58423406 -0.5626446 -1.2213578
H 1.0943327 -1.4325831 -1.3092796
H 1.4662741 -0.1720851 1.7152681
H -0.6100256 0.89569455 1.5953809
H -0.32821864 -0.5949192 -1.6541799
H -1.928411 1.3923206 -0.44723135
