10

C -0.064884625 0.53373617 0.34884763
O 0.036214825 -1.2062539 -1.3299987
C -0.76152486 -0.41689757 -0.47491524
O -0.8866448 1.4706806 0.6657319
N 1.2247454 0.5604026 0.68315434
H -1.4724303 -0.9893578 0.13176808
H 1.8087145 -0.16936737 0.30100185
H -1.5127473 0.9127109 -0.2159167
H -0.024950996 -2.1290648 -1.0619222
H 1.6535081 1.4334114 0.952249
