11

N -0.75237156 1.05490377 0.48877566
C 1.08161038 0.00410720 0.29015488
C 0.51226887 1.43142525 0.52763923
C 0.24606861 -0.47663604 -0.92969973
C -0.77333938 -0.41842735 0.21982102
O 0.23152658 -0.84868916 1.12290429
H -1.55492953 1.65908600 0.58334484
H 0.10839377 0.18981704 -1.78363615
H 2.14493876 -0.18188291 0.41184039
H 0.49517579 -1.49571283 -1.22690307
H -1.73934203 -0.91799077 0.29575808
