11

N -0.8831582 1.0943366 -1.0488441
C -0.24321727 -0.5401716 0.85690427
C 0.046423193 -0.8424661 -0.6001956
C 0.7131836 0.62766516 0.53091705
C -0.23468572 1.6975561 -0.19322433
O 1.2423325 -0.17319776 -0.5092922
H 0.038357515 -1.7752863 -1.1608412
H -1.163184 0.47599575 -1.7843965
H 1.4700383 1.0238916 1.2056423
H 0.27514318 -1.246586 1.5124677
H -1.261233 -0.34173757 1.1908628
