11

N 0.73353744 1.7409561 2.3427324
C 0.24844982 1.3242068 1.3808036
C -0.34578356 0.78159183 0.14363138
C 0.58016515 -0.118080005 -0.70116144
C -0.4003347 -1.232563 -0.31163454
O -1.2386136 -0.302238 0.40200964
H -0.836306 1.6010852 -0.39216417
H 0.59238917 0.14195515 -1.7600859
H 1.5995169 -0.22332166 -0.3294256
H -0.9373684 -1.7135112 -1.132375
H 0.004348021 -2.000081 0.35766906
