11

N 0.56453764 -1.15519606 -0.67188443
C 0.71893891 1.28294281 0.03528623
N 0.81715351 1.76337584 1.35149477
N -0.73950161 -1.75618428 -0.75071111
C -1.85991317 -1.11586216 -0.66631844
C 0.58903016 0.03088865 -0.32612929
H 1.49229647 2.51143964 1.43383349
H 0.99061886 1.04155462 2.03540955
H 0.65838667 2.04227135 -0.73996613
H -2.63457386 -1.89940671 -0.77636301
H -0.59697360 -2.74582370 -0.92465124
