11

N 1.1639724 1.9981227 -0.50640506
C 0.39021778 -0.29694656 -0.4624109
N -0.8396551 -1.6480078 0.879581
N 0.3198267 -1.4136794 0.061894625
C 0.55683774 0.8577108 -1.0575086
C -1.8672739 -0.8664385 0.95445174
H 1.6704298 1.8160243 0.34752503
H 1.7456497 2.4811385 -1.1776311
H 0.110334635 0.98991203 -2.0395577
H -0.7028387 -2.5454683 1.3332345
H -2.5475008 -1.3723681 1.6668264
