11

N 0.65739745 -0.2877824 1.1591498
C 0.2365414 0.71397215 0.41960332
N -0.48330927 0.38223135 -0.6993226
N 0.45949513 2.0303717 0.75706416
C -0.49736223 -0.92557377 -0.61734945
N 0.15637383 -1.3613344 0.462198
O -1.0641942 -1.7897311 -1.46268
H -1.4951762 -1.2640493 -2.151055
H 0.31419948 -2.3043807 0.77235925
H 1.2256554 2.1589444 1.3996636
H 0.4903791 2.6473324 -0.039630577
