11

N 0.2088496 1.0954976 -0.19562137
C -0.5912157 0.2564105 -0.93579227
N 0.009274871 -1.1495484 0.08078853
N -0.026809396 -0.8774027 -1.4394093
C 0.54918236 0.02710574 0.53417313
N 1.2452699 0.07186555 1.6793493
O -1.8432251 0.567769 -1.2408097
H -0.7335093 -1.5126716 -1.7909738
H -2.0696716 1.3573931 -0.72626173
H 1.6115017 -0.78664476 2.0586967
H 1.6403527 0.9502257 1.9758605
