9

C -0.48859698 -0.66621816 -1.1623025
C 1.2341639 1.0699965 1.299959
C 0.043609083 0.6472361 0.8969277
C -0.8818447 0.09984553 0.056802943
O 2.093063 1.5685906 1.9145449
H -1.0686779 -0.26141253 -2.001078
H -0.7049088 -0.116272666 1.4527411
H -0.81027085 -1.7088081 -1.0574588
H 0.5834632 -0.6329576 -1.4001366
