9

C 0.77537924 0.11918694 -1.6548326
C 0.15195695 0.026648091 -0.33369458
C -0.35156706 -0.042124495 0.7583534
C -0.97401565 -0.15047298 2.0674393
O -0.6553969 0.5138204 3.0259202
H 0.813843 1.1601388 -1.9874716
H 0.22141804 -0.46316677 -2.395019
H 1.8009621 -0.25986996 -1.6138716
H -1.7825798 -0.90416 2.1331768
