10

C 0.2976413 0.26349083 -1.3410063
C 0.20606482 -0.32132453 1.1013366
O 0.44643462 1.2501917 -2.020157
C -0.57644624 0.18888049 -0.11194476
H 0.81939125 -0.6860573 -1.5928783
H 0.6607239 -1.2973939 0.89666045
H 1.0072013 0.37232012 1.3772104
H -0.45300168 -0.43422914 1.966883
H -1.3930738 -0.5098322 -0.3441399
H -1.0149359 1.173954 0.068035826
