10

C -0.55937333 0.24908072 0.07455172
C -0.17179143 0.14118006 -1.38089520
O -0.18371992 1.05834145 -2.16552022
C 0.55125878 -0.27381224 0.98984601
H 0.13982692 -0.87791120 -1.69972301
H -1.46483891 -0.36010968 0.20876687
H -0.81558341 1.28889139 0.29406522
H 0.81463474 -1.30818808 0.74081119
H 1.45723750 0.33495525 0.90224675
H 0.23234912 -0.25242757 2.03585079
