11

C -0.042284187 -0.86968684 1.0185075
C 1.22199 0.7132152 -0.6193162
C -1.2440239 0.98165023 -0.13976175
O 0.14798982 -0.4209087 -1.433916
C -0.044948027 0.13443296 -0.111196086
N -2.1757596 1.6638516 -0.10483327
H 1.225797 -0.5237015 -1.3578465
H 0.8719643 -1.4653447 0.963051
H -0.915729 -1.5255663 0.95181173
H -0.06288948 -0.34572482 1.9781507
H 1.0178927 1.6577832 -1.1446512
