11

C -0.521073 1.1361253 0.47811604
C -0.1268331 -0.23192754 -0.029861953
C 1.2599751 -0.71324927 0.029681912
O 0.28068382 -1.1798595 0.9415793
C -0.9871382 -0.7756404 -1.079962
N -1.6774102 -1.169166 -1.9184093
H -1.528604 1.110462 0.9037928
H 0.17969997 1.4514209 1.2560022
H -0.5062293 1.8678939 -0.33428648
H 1.6116138 -1.4445252 -0.6959405
H 2.0153155 -0.05153433 0.4492882
