10

O 2.364447 -0.39921808 0.27443188
C 1.1727213 -0.19630864 0.13592334
N 0.33008277 0.5718422 0.92389536
C -0.97372997 0.5512561 0.43576694
C -0.9763835 -0.2222791 -0.6621222
N 0.32605782 -0.6791273 -0.8500445
H 0.6615274 1.0574551 1.7395562
H -1.7764467 1.0887499 0.91558117
H -1.7818221 -0.4903015 -1.3281404
H 0.65354556 -1.2820686 -1.5848479
