10

O 1.2514919 -0.67954177 -0.9892135
C -0.38919166 1.0641509 -0.39701664
N -0.7178536 1.4426249 0.7722903
C -0.0149468165 -0.39806712 -0.46970227
C -0.6492906 0.29123294 1.6980735
N -0.20178384 -0.70806366 0.9422208
H 1.8921698 -0.1264774 -0.51691574
H -0.7269734 -0.96111745 -1.0830374
H -0.0729098 -1.6392632 1.3112016
H -0.37071213 1.7145216 -1.2679002
