10

O -1.6132661 0.20350952 0.18960086
C -0.4763766 -0.508633 1.0203533
N 0.52004784 0.49166352 1.0991164
C -0.3395239 -0.85228586 -0.41433343
C 0.7686628 -0.13266474 -0.9242496
N 1.2904421 0.6400091 0.016104914
H 1.1798401 -0.14528911 -1.9263066
H -0.90629375 -1.620109 -0.9224894
H 0.89004046 0.8424033 1.9679397
H -1.3135728 1.0813963 -0.105736166
