10

O 0.24532641 -0.41532769 -1.11328831
C -0.29195667 1.48669386 0.28941364
N 0.98154194 -2.09413568 1.70297459
C 0.36266715 -1.68942525 0.80405310
C 0.24661132 0.91402082 -0.76735716
N -0.45649226 -1.20221938 -0.15278710
H 0.79384725 1.45486584 -1.53242191
H -0.15317151 2.55354229 0.43363238
H -0.87662646 -1.94499571 -0.70338145
H -0.85174697 0.93698074 1.03916190
