10

O 1.6655889 -0.12974565 -1.4478287
C 1.1589153 0.7880286 -0.84603596
N 0.2732635 0.64816815 0.18592012
C -0.21286343 -0.65858865 0.5757627
C -1.6482481 -0.81593466 0.2849367
N -2.7796905 -0.9195741 0.07965885
H 1.380496 1.8499936 -1.0613637
H -0.15070742 1.4723804 0.5831611
H 0.35938382 -1.3932244 0.003746378
H -0.046137847 -0.84150344 1.6420422
