10

O -0.20605035 1.1038865 -1.0001428
C 0.55739456 -0.9876824 0.30299467
N 2.1426919 1.588584 -0.4597121
C -1.1458938 0.50441325 -0.2528097
C 1.0939709 1.0785682 -0.4918705
N -0.7397056 -0.527676 0.4332886
H 0.85772943 -1.2415217 -0.7078933
H 0.886516 -1.6354908 1.1084918
H -1.3295071 -0.84393233 1.1958913
H -2.117145 0.9608511 -0.12823778
