11

N -0.6372059 -1.255173 -1.3071774
C -0.6212952 0.4137677 0.40816844
C 0.15668468 -0.3953118 -0.5565234
C -0.036433194 1.3205757 1.1687939
N 1.4175 -0.23704696 -0.6691332
N 0.44103837 2.2375765 1.8029201
H 0.7995473 2.038718 2.7293541
H 1.7985835 -0.8547189 -1.3896991
H -0.1373258 -1.9796355 -1.8012714
H -1.48285 -1.5898081 -0.86912066
H -1.6982436 0.30105615 0.4836884
