10

C 1.1499631 -0.09397082 1.0591424
C 2.1010609 -0.12222663 1.7893833
C 0.046872206 -0.040122475 0.1516326
C 0.033542525 0.38763618 -1.1910645
N -1.1879479 -0.4122788 0.49035013
N -1.8669624 -0.20389003 -0.61481386
N -1.2017221 0.2710442 -1.6534921
H 2.941446 -0.15075672 2.4476252
H 0.83876705 0.7582645 -1.8063824
H -2.8550196 -0.3936993 -0.6723807
