10

C 0.38293475 2.05309 1.5004376
C 0.18025163 1.0919222 0.8061179
C -0.058500867 -0.043271124 -0.01990022
C -1.2044889 -0.7227045 -0.37373546
N -0.8676864 -1.7443906 -1.2006383
N 0.41857725 -1.7390157 -1.381141
N 0.9158263 -0.72373265 -0.6782992
H 0.5514843 2.9075992 2.1190817
H -2.2271698 -0.53305036 -0.08533857
H 1.9087716 -0.5464466 -0.6865844
