10

C -0.9444364 -0.38702455 0.8443485
C 1.2238224 -0.6446088 -0.47351092
C 0.09143572 0.06400444 0.028153898
C 2.1688957 -1.2566745 -0.88987094
N -0.12564364 1.3678628 -0.21517372
N -1.354496 1.6703771 0.43669575
N -1.8345404 0.5910422 1.0114081
H -1.0722588 -1.359892 1.2991892
H -1.1680034 1.7455814 -0.78299654
H 3.015225 -1.790668 -1.2582436
