13

N -0.92722290 0.02903485 -2.08472400
C -0.16301597 -0.64185631 0.36420504
C -0.41424275 -0.00198840 -0.93650937
N -1.25169710 -0.69539457 1.30514402
C 0.39844638 0.75897729 0.01483569
N 1.81444053 0.85313306 -0.23705252
H -1.45590476 -0.83465142 -2.25157810
H 0.59656252 -1.42680395 0.37243200
H 1.99140878 1.51177433 -0.98779706
H 2.29965471 1.18224667 0.59138825
H -0.11732254 1.57851886 0.51987417
H -1.87626667 -1.46351340 1.08794291
H -0.89484056 -0.84947676 2.24183839
