13

N -2.2197156 0.28379908 -0.44607174
C -0.9960298 0.114625335 -0.20841396
C 0.17983834 -0.73275185 0.04395448
N 0.26857904 -1.3911165 1.3215069
C 0.26636538 0.81390095 0.04050739
N 0.924795 1.4307683 -1.0834577
H 1.8835481 1.6647507 -0.8465877
H -0.29586813 -2.2328837 1.3313754
H 0.44611198 2.2873466 -1.340128
H -2.687732 -0.6266684 -0.51893044
H 1.2272707 -1.6659375 1.5055394
H 0.37042567 1.2512573 1.0358067
H 0.6324112 -1.1970904 -0.8351004
