13

N -0.60155964 -0.86323994 -1.4368365
C 0.4406071 -0.040315233 -0.84186846
C -0.08207789 0.5486723 0.48022667
N -0.5276729 -0.53268415 1.3477226
C 0.988995 1.319664 1.1374876
N 1.8198166 1.943986 1.644188
H -0.51241803 -0.88522625 -2.447545
H -0.51626074 -1.8235234 -1.1253511
H 0.6875754 0.7861045 -1.517158
H 1.3630447 -0.59880227 -0.6305448
H -0.8848054 1.2609792 0.231916
H -1.3487614 -0.94278884 0.910698
H -0.82648313 -0.17282568 2.2470644
