9

O -1.3202286 -0.6589193 0.8856535
C -0.5987226 0.2983466 0.15550493
C 0.8602398 0.1951489 0.33949938
C 2.04295 0.075479165 0.50782937
C -0.9286134 0.23246443 -1.2942404
N -1.2019548 0.1473683 -2.4118578
H -1.0050037 -1.5356684 0.6343864
H -0.94564474 1.2684335 0.5279535
H 3.0969787 -0.022653231 0.6552711
