11

C 0.01144537 -1.0216613 0.47160402
N 0.27205303 0.34611553 0.79756635
C 0.5776204 1.1815054 -0.35729623
C -1.984154 -1.2103444 -1.2090048
N -1.089216 -1.1997824 -0.452886
H -0.21968481 -1.5809578 1.3813208
H -0.50711155 0.7293012 1.3190458
H 0.77062243 2.200707 -0.012607797
H 1.4903831 0.8115325 -0.83776826
H -0.22394651 1.2049786 -1.1090344
H 0.90198874 -1.4613941 0.0090602925
