11

C 0.711317 -0.09687739 1.222961
N -1.8656126 0.9207843 -1.165337
C -0.20827541 -0.32576486 -1.008627
C -1.9897702 0.2012157 -0.22423862
N 0.766712 0.17000571 -0.20827113
H 1.0916847 1.0866237 -0.47606397
H 0.74529046 -1.1775471 1.3909833
H -0.22561975 0.28937206 1.6433564
H -0.47324488 -1.363422 -0.8247472
H 1.573147 0.36602533 1.7069381
H -0.12562862 -0.070415325 -2.056954
