12

C 1.4001582 -0.29216546 0.8837266
C 0.33727363 -0.50534445 -0.18702683
C -0.5894909 0.69387764 -0.3223871
O -0.22008201 1.8357053 -0.12008622
N -1.8684112 0.39744693 -0.699985
H 2.1138859 -1.121461 0.890724
H 1.9406838 0.63974535 0.6973743
H 0.9480487 -0.22234438 1.8778143
H -0.24704139 -1.4134352 0.013596286
H 0.81479603 -0.6478544 -1.1651511
H -2.1447952 -0.532212 -0.95818484
H -2.485026 1.1680417 -0.9104141
