12

C -0.95317604 0.37554683 0.78021618
C -0.87491214 -0.85151899 -0.10384396
C 0.20040887 0.19603094 -0.14330234
O 0.21465448 1.09105615 -1.21965962
N 1.45802343 -0.15038620 0.43101032
H 2.02884417 -0.67290139 -0.22632967
H 1.96719891 0.68842256 0.68813066
H -0.76955293 0.24776148 1.84163884
H -0.63412388 -1.79843898 0.36796608
H 0.59305839 0.63469126 -1.98136565
H -1.55580300 -0.90074907 -0.94742429
H -1.67462070 1.14048542 0.51296375
