11

O 0.43658414 1.2345719 -1.5809649
C -0.40108842 -0.73121387 -0.25194588
C 0.20912303 0.43993613 -0.48406714
N -0.34965342 -0.6956123 1.1642889
C 0.43132263 0.5856043 1.0085063
O -0.9768484 -1.7482798 -0.9183435
H -0.0594269 1.4267839 1.5097862
H 1.4661126 0.49183002 1.3564898
H -0.86747116 -1.5883297 -1.8636799
H 0.21557626 -1.4468484 1.5594501
H -0.10423027 2.031558 -1.4995202
