11

O -1.5038857 -1.0445981 0.38221148
C -0.16654123 -0.7717418 0.067596935
C 0.028126985 0.23528585 -1.0928682
N 0.76174575 1.0795074 -0.14822778
C 0.50621074 0.30265123 0.94621795
O 0.6818571 0.4417929 2.1312094
H -1.5593303 -1.1300306 1.3432815
H 0.43364704 -1.6849743 -0.039328363
H 0.6271544 -0.1130785 -1.9378413
H -0.9192171 0.6606785 -1.4331926
H 1.1102327 2.0245078 -0.219059
