11

O -1.68369992 -1.04884410 -0.95872328
C -0.71364062 -0.42037157 -0.27023531
C 0.47781972 0.16279720 -0.46559921
N -0.81778127 -0.17930893 1.12284671
C 0.56631790 0.41297209 1.02703201
O 1.24486917 0.50170247 -1.55332511
H -0.83337467 -1.03747164 1.67357918
H 1.31305574 -0.17351996 1.57391964
H -1.39255479 -1.13847631 -1.87436999
H 1.25045932 1.46470610 -1.63634969
H 0.58852981 1.45581502 1.36122506
