11

N -1.1838048 0.4106045 0.15333374
C 0.5930194 -0.5509236 -0.66697544
C -1.6808195 -0.22314069 -0.95036465
N 0.83162874 0.86822575 1.4301798
C 0.1776176 0.23372798 0.35645103
N -0.546045 -0.7949003 -1.4308554
H 1.570097 -0.94189113 -0.9071903
H -1.7497325 1.0000597 0.7433278
H 0.7227876 0.3592698 2.2990339
H -0.5520869 -1.3503293 -2.2705734
H 1.8173383 0.98929715 1.2436326
