10

N 1.74754076 0.61050263 0.68899362
C 0.39268407 0.63103893 0.56253373
O -0.33480258 1.42624582 1.12227820
N -0.03042136 -0.39791363 -0.32038874
C -1.28124749 -0.41812911 -0.54702977
O -1.82823909 -1.33093547 -1.34069640
H 2.17335093 1.23782592 1.34849681
H 2.27722932 -0.13440260 0.26858239
H -2.00449745 0.28293490 -0.13193465
H -1.11159712 -1.90716753 -1.65083519
