10

N -0.20250134 0.07639048 0.47786245
C 0.27177376 -0.38719493 1.6099224
O 1.3660377 -0.8286737 -0.948276
N -0.36119795 0.40007934 -1.789025
C 0.3594732 -0.16926083 -0.7864779
O -0.48748967 0.014436091 2.5471663
H -1.1134207 1.0387634 -1.5956506
H 1.1548084 -1.0073186 1.7498885
H -1.0149602 0.5070557 1.451058
H 0.02747676 0.35572326 -2.7164683
