9

O 0.19884632 -1.63304975 1.11985531
C 0.12502547 -0.53860980 0.35896929
N -1.05271971 0.07134213 0.15256708
N -0.87085431 1.15323885 -0.65079390
N 1.09427984 0.08113868 -0.26718992
C 0.42346319 1.10746945 -0.86692529
H -1.96409397 -0.17493910 0.50287224
H 1.12632243 -1.91005145 1.13394385
H 0.91973071 1.84346109 -1.48329859
