9

O 1.5576594 -0.45036808 1.1538341
C 0.5513092 -0.12802115 0.3380231
N -1.5578158 0.07279884 -0.28247118
N 0.6147076 0.3931759 -0.86195683
N -0.7220191 -0.33012727 0.7115403
C -0.7065413 0.4926305 -1.189741
H 2.3806844 -0.22917451 0.694657
H -1.0411404 0.892677 -2.1362543
H -1.0768439 -0.7135913 1.5723689
