9

O -1.9663537 0.4262407 0.07608634
C -0.656551 0.13478518 0.030554816
N -0.1101659 -0.89669454 0.6557005
N 1.1732256 -0.78371495 0.329391
N 1.497355 0.22504063 -0.44789582
C 0.339192 0.8430144 -0.6625619
H -2.3992696 -0.23516831 0.63267124
H 1.8597931 -1.4415241 0.661092
H 0.26277447 1.7280211 -1.2750381
