11

C 1.1587226 0.64670235 -0.2419521
N 0.41405398 -0.6160363 -1.8730965
C -0.53546363 -0.71904993 -0.77326155
N 1.3421544 0.1662928 -1.51204
C -0.54725313 0.33561027 1.4616745
N 0.015449957 0.14935833 0.29610157
H -0.60441834 -1.749196 -0.41310394
H -0.071433336 0.9887893 2.1798735
H -1.5209936 -0.35349566 -1.0753139
H -1.4765224 -0.17277557 1.6849484
H 1.8257034 1.3238003 0.26616988
