11

C -0.6381028 1.3621646 -0.15100805
N 1.0694464 -1.7434603 -0.39176977
C 0.25921145 -0.90165275 -1.0874865
N -0.24574873 0.005422287 -0.254723
C 0.18152848 -0.37147778 1.0388558
N 1.0744141 -1.418215 0.8756792
H 0.21408948 2.0337884 -0.12804179
H -1.4636453 1.6778148 -0.7894689
H 0.042015765 0.89687204 1.3341677
H -0.643199 -0.621521 1.7150952
H 0.14999035 -0.91973567 -2.1612997
