11

N -2.6938324 0.2947866 -0.040897276
C 0.7730806 -0.093506575 -0.10055567
O -0.5352 -0.21178311 -0.4568531
N 1.5262011 -0.7645244 -1.0405389
C -1.4916148 0.40520385 0.311207
N 1.1517715 0.5652203 0.91032344
H -3.2867057 0.804534 0.60379857
H 2.4456687 -1.0583953 -0.75343454
H -1.075127 0.93321943 1.1704934
H 2.1632318 0.55371547 1.0090352
H 1.0225263 -1.4284703 -1.6125784
