11

N 0.08159637 -0.34060106 -0.9063471
C -0.2969095 1.2977414 -0.35964966
O -0.40476328 0.37703127 1.0067475
N 0.62751734 2.1613688 -0.38750562
C -0.025456084 -0.6726173 0.35052443
N 0.17853922 -1.846547 0.974681
H 0.684074 -0.78721416 -1.5782496
H -1.3358492 1.3969038 -0.6691118
H -0.07988056 -1.9156495 1.9464073
H 0.2901254 3.019246 -0.8136745
H 0.2810063 -2.6896625 0.43617827
