11

C 1.7129413 0.28389996 0.07923821
C -1.1331296 0.59231806 0.6122599
O 0.13594648 -0.42289868 -1.5702556
C -0.6575098 -0.6958911 0.031367175
C 0.7855117 -0.7676186 -0.33646065
N 2.4481902 1.0893078 0.4575524
H 1.2755017 -1.7429365 -0.35322687
H -0.46597615 1.4514695 0.47286013
H -2.1415687 0.83170456 0.26892114
H -0.7618414 -1.0147227 -1.3538193
H -1.1980653 0.39536768 1.6915635
