11

C 0.67771786 -1.4255544 -0.5108934
C 0.16506852 0.9991682 0.23531224
O -0.39061078 0.34096098 -1.6412559
C -0.6948807 0.36878031 1.2591742
C 0.70949167 0.02256964 -0.7698964
N 0.6889079 -2.5467749 -0.22213422
H -1.4789778 1.0458527 1.6028693
H 1.6797153 0.28164464 -1.2055907
H -0.2775648 1.2704638 -1.8938204
H -1.0970899 -0.62884176 1.049285
H 0.018222686 0.2717312 2.0969503
