11

N -0.08821877 -0.8628932 -1.896427
C 0.2850376 -0.26957548 1.4404479
C 0.36678153 -1.2371 0.4867004
C 0.010242727 -0.42310902 -0.6525083
C -0.098527335 1.0958554 0.9325146
O -0.25622708 0.8702664 -0.48599127
H 0.46997392 -0.40425488 2.50421
H -0.38856947 -0.26429895 -2.6508477
H -1.0530907 1.4737673 1.3141054
H 0.08253454 -1.8439602 -2.0562305
H 0.670063 1.8653027 1.0640266
