11

N 0.7953623 -1.9724513 0.11761155
C -0.42382333 1.1859109 -0.7066198
C -0.483553 1.0098047 0.8007022
C -0.020219978 -0.20257425 1.1596004
C 0.32959235 -0.78434086 -0.12447313
O 0.13431117 -0.071950205 -1.2037053
H 0.24646015 1.9853804 -1.0392885
H 0.5513713 -1.63994 1.3275983
H -0.86407137 1.8090986 1.4293162
H -1.3990294 1.3099217 -1.1867698
H 1.1335999 -2.6288598 -0.57397187
