11

O -0.28067526 1.6437206 2.166486
C -0.21653795 0.8699782 1.2334058
C 0.75233775 1.0197242 0.13415746
C 0.78182405 0.1338154 -0.8717037
N -0.102539204 -0.92263913 -0.87605095
C -0.9934663 -1.043632 0.15322557
N -1.0876081 -0.2429511 1.1487606
H 1.4348109 1.8604215 0.1648391
H 1.4693362 0.18179782 -1.7109305
H -0.099686965 -1.5972044 -1.6214193
H -1.657795 -1.903031 0.07922971
