11

O 1.70904980 1.72614220 -0.33944688
C -0.97485626 -0.18671366 1.06515673
C -0.06993720 0.82145956 0.98939382
C 0.84989187 0.89512651 -0.12970381
N 0.64662486 -0.17296175 -1.03070758
C -0.29615014 -1.14096014 -0.86328339
N -1.10715198 -1.19333578 0.13520634
H -0.00386610 1.58893070 1.74789538
H 1.25437178 -0.18963830 -1.83774212
H -0.34116980 -1.90127836 -1.63947555
H -1.66680671 -0.24677089 1.90270684
