12

C 1.3099784 0.024059238 -1.6563572
N 1.0071391 0.29305407 -0.3290603
C 0.19177887 -0.5406721 0.40973467
N -0.06425377 -0.25361222 1.6809887
C -1.5562736 -0.2779552 0.5884998
O 2.1277866 0.6486304 -2.285714
H -1.6781882 -0.034538846 -0.47348216
H -1.9929998 -1.2366802 0.8393987
H 0.71737367 -0.8187509 -2.045199
H 0.39073354 0.6094094 2.0172992
H 1.5443913 1.0434035 0.09546781
H -1.9974661 0.5436527 1.1584238
