10

O -0.22640175 0.63443995 1.623066
C 0.67741543 0.7020792 0.5627909
C 0.11985865 0.23096083 -0.78051114
O -1.0482217 -1.6121167 0.2105093
C -0.7745117 -0.99609256 -0.7998061
O 0.39425394 0.7485215 -1.838458
H 1.5896631 0.10620843 0.73471653
H -1.1384419 -1.289313 -1.8018557
H 0.9816217 1.746164 0.4478797
H -0.5752359 -0.27085173 1.6416686
