9

O 1.43094608 -0.21523673 -1.38829549
C 0.54317243 0.14188534 -0.45584052
N 0.37727607 1.31813963 0.07341285
N -0.65521817 1.19170993 0.98617458
C -1.05935457 -0.04247078 0.96471130
N -0.32560258 -0.76905335 0.05365851
H 1.93939634 0.58052161 -1.60601208
H -0.39889727 -1.74230968 -0.19362930
H -1.85171849 -0.46318614 1.56582034
