9

O 1.5845846 -0.28218204 -1.5367271
C 0.62059706 -0.15063101 -0.6132205
N 0.35137758 0.99289423 -0.017591061
N -0.6650448 0.6271317 0.8028658
C -0.9363851 -0.67859715 0.6522731
N -0.1349895 -1.2134199 -0.24579425
H 1.98749 0.5885782 -1.6553597
H -1.0967968 1.3078396 1.406812
H -1.7108332 -1.1916138 1.2067419
