11

N 1.836424 0.9276001 -0.653505
C -1.2058647 -0.72771126 -0.34661415
O -1.172564 -0.035982292 0.8646541
C 0.74156857 0.40309715 -0.32889277
C 0.18085155 0.32153144 1.0724359
O -0.15272269 -0.20549087 -1.1534761
H -1.0360591 -1.8044143 -0.20745918
H 0.7222293 -0.44138896 1.6503143
H -2.1594756 -0.54435337 -0.8445275
H 2.016353 0.8293156 -1.6489469
H 0.22925958 1.2777967 1.596017
