11

N 2.2588074 -0.64500684 0.7255104
C 1.1070528 -0.32030264 0.34147212
O 0.5062726 -0.90328646 -0.7230322
C -0.8559569 -0.4974949 -0.7567301
C -0.83271384 0.80511713 0.036361706
O 0.288583 0.6200298 0.8956296
H 2.5431976 -0.06372526 1.5080031
H -1.475074 -1.262118 -0.2745114
H -1.1603525 -0.3763566 -1.7976437
H -0.6584509 1.676705 -0.60367936
H -1.7213652 0.96643853 0.6486194
