11

O -0.6282374 0.95970273 -0.88111717
C 0.84279406 -0.8409499 -0.08448905
C -1.062007 0.8155126 0.47458616
C -0.56800276 -0.3305369 -0.28112036
O 1.7177656 0.20904781 0.2483206
H -1.2864699 -1.0457044 -0.682696
H 1.1624618 -1.3591831 -1.003192
H -0.4096795 1.2829897 1.2090032
H 0.8665383 -1.5656749 0.73505265
H 1.4979115 0.9315517 -0.35747164
H -2.1330745 0.94324446 0.6231237
