11

O -0.8494721 0.0464306 2.391786
C 0.6465812 0.8042944 -0.7409137
C 0.28176627 1.028407 0.53129655
C -0.45830637 -0.004817366 1.2450511
N 0.3256471 -0.38753277 -1.3696465
C -0.36275443 -1.4302255 -0.82992184
N -0.7055651 -1.1502782 0.4492989
H 1.2005765 1.5226219 -1.3373828
H 0.6239634 -0.5065822 -2.326658
H -1.2218206 -1.870279 0.9384254
H 0.51938415 1.9479613 1.0486646
