10

C 0.86978126 -0.1345999 0.60405433
C -0.200659 -0.8924248 -0.13324338
N 1.55334 0.7550186 -0.3606478
N 0.7126556 1.0670763 -1.2105596
C -0.5756087 0.26918328 0.67145187
C -0.5484607 0.3934701 -0.82672054
H -1.289111 0.46297765 1.4552413
H -0.5218247 -1.9201944 -0.20093387
H 1.4294213 -0.53240436 1.4404527
H -1.4295342 0.53189737 -1.4390953
