10

C -0.22422554 0.9737246 -0.36968195
C -0.6287939 -0.039953366 -1.2348934
N -0.45635357 -1.3353095 -0.9894441
N 0.13202244 -1.7116717 0.1374892
C 0.5401829 -0.7882829 1.0051243
C 0.38893375 0.5835023 0.8049295
H -0.3875211 2.0171356 -0.6182622
H -1.1161984 0.18540366 -2.1802368
H 1.0114266 -1.181968 1.9018404
H 0.74052674 1.2974192 1.5431352
