11

N 0.35584942 -2.3197484 0.6666121
C 0.9284714 -0.19311926 -0.13728815
C -0.7545206 1.4846992 -0.43409935
C -0.103879295 -1.1543497 0.3146735
C 0.57495064 1.1318572 -0.27751887
O -1.3108015 -0.7530838 0.36374512
H 1.3231838 1.9155964 -0.16742338
H -0.41170773 -2.8789933 1.0476941
H -1.4752517 0.8251439 -0.89116514
H 1.9450724 -0.56338507 -0.24430272
H -1.0713665 2.5053833 -0.24092726
