11

O -1.1224684 0.8685532 1.0506225
C -0.30312982 0.31111622 -0.8757981
N 0.74721706 -0.6267963 1.031554
C 0.18532468 -1.0358099 -0.31526303
C 0.12267713 0.615703 0.95997417
C 0.30615836 1.401354 -0.22127804
H 0.98301566 -1.4519647 -0.9375862
H -0.64605004 -1.746527 -0.2632477
H 0.35401213 -1.1705441 1.7940307
H -0.89388853 0.37956873 -1.7874104
H 0.2671319 2.4553468 -0.43559802
