11

O 1.2552216 -0.65667933 -2.1036716
C 0.62381387 -0.3473548 -1.1144787
N 1.1417445 0.033506386 0.09951064
C 0.12990129 0.33765835 1.0820554
C -1.1397313 0.09216832 0.30503243
C -0.8622211 -0.29301623 -0.93590766
H 2.1336093 0.08337092 0.25825933
H 0.19012225 1.3755916 1.4326062
H 0.19455603 -0.31495845 1.961918
H -2.119178 0.22955874 0.7495866
H -1.5478381 -0.53984547 -1.7349106
