11

O 1.30245488 0.72064739 0.16943176
C 1.48877061 -0.40475341 -0.56739050
N 0.47999133 -0.99643529 -1.05659902
C -0.10352219 0.89338522 0.21235900
C -0.88472799 -0.19310677 0.88506392
C -0.66676004 -0.23870067 -0.60716319
H 2.52537737 -0.70421212 -0.68066797
H -0.40714898 1.93337207 0.20586020
H -0.35127467 -0.90876852 1.50172322
H -1.87998683 0.06661690 1.22782528
H -1.50317314 -0.16804475 -1.29044266
