11

C -0.8383331 -0.14278167 -0.71327347
C 0.40377137 -0.92803085 -0.28956676
O 0.65761364 -0.43003938 1.012176
C 0.34951815 0.9349988 0.92113936
O -0.7388031 1.0649081 0.030281408
H -1.7634524 -0.66129416 -0.4393137
H -0.8571281 0.077636175 -1.7865053
H 0.25273302 -2.007319 -0.22889143
H 1.2538612 -0.7132538 -0.9537773
H 0.068024665 1.3020104 1.9118043
H 1.2121947 1.5031656 0.5359269
