11

C -0.73113704 0.26770523 -0.8977632
C 1.1291791 0.39210105 0.4442817
O 0.5720588 0.7171149 -0.79580766
C -0.42750505 -1.2934971 0.5890833
O 0.896196 -0.995924 0.6069643
H 0.6335143 0.9466365 1.2586479
H -0.97243583 0.13576742 -1.956911
H -1.4694433 0.8850178 -0.37880313
H 2.200708 0.5806834 0.40030342
H -0.9716751 -0.62493104 1.2880311
H -0.8594602 -1.0106739 -0.5580268
