10

O -0.05042464 2.10766940 -0.29151963
C 0.13554383 0.80164968 -0.06434993
C 0.43112618 -1.09446280 0.27140541
C -0.83260309 -0.32798218 -0.20721907
N 1.18652653 0.18794338 0.33413849
H 0.85379514 -1.79557889 -0.45336551
H 0.34355943 -1.57730548 1.24846214
H -1.68187563 -0.31769344 0.48002246
H -1.17020777 -0.54215097 -1.22473958
H 0.78456005 2.55791119 -0.09283464
