12

C -0.05527337 -0.42536864 1.387379
C 0.4503564 -0.6139252 0.0037070964
O 1.7978677 0.789823 -1.3677326
N -0.9418772 -0.90805036 0.33987427
C 0.70093024 0.5724203 -0.89125025
N -0.39123523 1.365174 -1.0570506
H -0.2713009 0.5802739 1.7386632
H -0.32383722 2.126538 -1.7150853
H -1.0955625 -1.9093449 0.40899038
H 0.28614765 -1.1236732 2.1485112
H -1.2968359 0.9813394 -0.82756865
H 1.1406204 -1.4352065 -0.16843757
