10

N 1.4808668 0.5005497 0.9200303
C 0.2250196 0.623634 0.3759299
O -0.44674742 1.6290019 0.43984553
N -0.23096555 -0.5484861 -0.23259407
C -1.4605348 -0.6411438 -0.86752605
O -1.8585249 -1.6706557 -1.3534662
H 1.8824264 1.3752389 1.2246863
H 2.1294758 -0.16577107 0.53165954
H 0.28925237 -1.412642 -0.16351765
H -2.0102682 0.310274 -0.8750475
