11

O 1.03773259 -0.22752857 -1.00084452
C 0.45698695 0.93717745 -0.44271067
C -0.32537288 0.41160933 0.73912752
O -0.40568985 -0.94127227 0.59295610
C 0.18245253 -1.27786556 -0.65968253
N -0.80735024 1.10507311 1.67069870
H 1.24332680 1.62932606 -0.13893877
H 0.76368483 -2.19346742 -0.54968829
H -1.30828564 0.52752455 2.34064370
H -0.21793155 1.43777379 -1.15122837
H -0.61955354 -1.40835031 -1.40033289
