11

O -0.3810161 1.1898822 0.00823951
C 1.0332202 -0.22522414 -0.44953775
C -0.116435006 -1.0068101 -0.5949761
O -0.90901697 -1.0108265 0.5453784
C -1.0414178 0.41510576 0.9192135
N 2.1674914 0.1368268 -0.60555506
H -0.5036631 0.2481956 -1.0139601
H 2.5175812 1.0756882 -0.5793749
H -0.6088758 0.54174316 1.9178089
H -0.03741137 -1.9675933 -1.0964681
H -2.1204567 0.6030124 0.94923174
