9

O 0.8365284 -1.7232873 -0.6230362
C 0.27379405 -0.5738935 -0.21349064
N -0.65775675 0.06612353 -0.8969288
N -0.9050391 1.1237329 -0.12539074
N -0.21449369 1.212544 0.98889226
C 0.5593309 0.13239038 0.96763104
H 0.44246814 -1.9597714 -1.4721686
H -1.5920641 1.8126638 -0.38421696
H 1.2572321 -0.090502426 1.7587086
