9

O 0.074345335 0.029354567 -2.2149916
C 0.074878596 -0.03795929 -1.0078427
N -0.14654095 1.015615 -0.115838334
N -0.3215473 0.46567884 1.165368
N 0.11382397 -0.82634497 1.1373024
C 0.29689667 -1.169619 -0.09165715
H 0.56734616 -2.175949 -0.37826017
H 0.17460847 0.98845834 1.8824049
H -0.83381087 1.7107654 -0.3764856
