12

N 0.67979926 1.6340036 0.7875773
C -1.1254653 0.19212277 0.08356251
C -0.028251903 1.1279222 -0.37364915
N 0.3812831 -1.3499966 -1.3653026
C 0.065862685 -0.3843466 -0.42907116
N -0.20427375 -0.45113885 1.0638465
C 0.53751904 0.6631581 1.595581
H 1.3293831 -1.6957606 -1.2731609
H -2.1912782 0.027146356 -0.03281065
H 0.9285036 0.6235886 2.6068947
H -0.27765137 -2.117264 -1.3907661
H -0.09543047 1.7305648 -1.2727011
