12

N 0.9808319 -0.15787612 -1.2440517
C 0.9863618 -0.14557838 0.21382931
C 0.11888939 -1.0989579 -1.6275375
N -0.5515516 1.7173895 0.9548207
C -0.17752482 0.600143 0.3664632
N -0.68560153 -1.6455147 -0.7342685
C -0.43470657 -0.90637827 0.39486393
H -1.5217099 2.001602 0.94690645
H 0.06670106 -1.3754797 -2.679938
H 1.9166982 -0.15890098 0.7829714
H 0.12636827 2.401676 1.2657361
H -0.8247561 -1.2321247 1.3602047
