11

N -2.25123525 0.48857114 -0.29787676
C 1.19452645 -0.49586795 0.16902887
C -0.09660591 -0.53032657 -0.03184618
C -0.93060927 0.70955163 -0.00171018
C 2.47996364 -0.48532180 0.35654477
O -0.49748374 1.81011954 0.27704772
H 3.16681760 -0.35905244 -0.47737107
H -0.58453342 -1.48596388 -0.21752855
H -2.55501744 -0.37499627 -0.71517947
H -2.82799013 1.30571005 -0.41534046
H 2.90216773 -0.58242348 1.35423132
