11

N -0.8664391 -0.68286973 -1.6271372
C -0.28632343 -0.14345849 -0.5081233
C 1.2664274 -0.0040306547 1.0020329
C -0.7175385 0.759022 0.42267564
C 0.32394454 0.94692016 1.4120309
O 0.927765 -0.64598054 -0.18909092
H 0.57201385 -0.1694986 2.0868194
H 2.287052 -0.18004 1.3243357
H -1.6240145 -0.13944495 -2.009557
H -1.6698644 1.2727909 0.40772787
H -0.2130227 -1.0134102 -2.321714
