10

N 0.77350902 1.69346211 0.08122224
C 0.64262833 0.43072903 -0.35109717
N 1.29387817 -0.63193179 -0.58424142
N -1.05307462 -1.41360771 -0.06385862
N -0.95409709 -1.13725005 1.14030155
C -0.18365749 -0.60438471 -0.89684546
H 1.60449484 1.90767488 0.61248079
H -0.06381818 2.17411857 0.36651610
H -0.47344856 -0.64138828 -1.94374374
H -1.58641426 -1.77742203 1.63926608
