10

N -1.0266473 1.43846 0.59123194
C -0.070048705 0.83653384 -0.1306605
N 0.59301376 -1.641929 0.6755223
N 0.6461823 -1.543211 -0.5588195
N 1.1438614 0.93402094 -0.48371735
C 0.32066974 -0.20957188 -1.0279073
H -1.8377279 0.8925712 0.83142716
H -0.72016674 2.0989773 1.2901216
H 0.08884031 -0.1971152 -2.089719
H 0.86202294 -2.6087365 0.9025203
