11

N -0.41426265 -1.0599082 -1.00274
C -1.5933492 -0.66843665 -0.5395833
C -0.5242807 1.0275971 0.16055408
N 0.5880354 -0.026698358 -1.3133886
C 0.63118494 0.1289725 0.015078931
N 1.7021762 -0.049071617 0.80611086
N -1.7422823 0.55400187 -0.03179003
H 2.511417 -0.47101116 0.3786642
H -2.419569 -1.3704606 -0.5873178
H -0.32657126 2.0836675 0.31228584
H 1.5875014 -0.14865217 1.8021262
