11

N 0.76003046 -1.00603857 -0.41586013
C -0.61963534 -1.46300329 -0.28729263
C 0.31222669 0.29697558 0.08432208
N 1.26219699 1.24482831 0.46364994
C -0.97816462 0.58705455 -0.61596413
N 0.07149700 -0.92415544 0.88331726
N -1.57170730 -0.51948843 -0.85105322
H -0.82225194 -2.52961065 -0.32508767
H -1.36149118 1.55796112 -0.90977068
H 2.06966296 0.80907037 0.88745455
H 0.87763640 1.94640653 1.08628482
