11

N -0.4238164 -1.6485522 -1.0640788
C -0.23430882 -0.48907995 -0.35707438
C 1.0124985 -0.13506818 0.20091881
N 1.162165 1.0150019 0.8222598
C 0.066801675 1.7891859 0.8725903
N -1.1237221 1.4946975 0.37412396
N -1.2781512 0.3292235 -0.24629015
H 0.17771281 -2.430648 -0.8672334
H -1.3900692 -1.8817039 -1.2423863
H 1.8773429 -0.7932561 0.13487804
H 0.15354696 2.7501996 1.3722923
