10

C -1.2207178 -0.38046 -0.3495254
C -0.09180982 -0.81291425 -1.0444324
N 1.1366401 -0.43457198 -0.6989685
C 1.2211326 0.3811099 0.3498331
C 0.09180592 0.8124967 1.0440563
N -1.1359354 0.43472573 0.69826967
H -2.215829 -0.70148885 -0.64867127
H -0.18439017 -1.4799685 -1.8990173
H 2.217036 0.7017389 0.64903533
H 0.18206786 1.4793321 1.8994205
