10

C -1.2578057 0.110496394 -0.5543072
C 0.1740684 -0.14735709 -0.91740066
N 0.9786958 0.7668997 -0.040325567
C 0.8562104 -0.63981825 0.3141095
C 0.08439432 0.36761937 1.0781801
N -1.3240249 0.4322587 0.67624
H 0.5559313 -0.3304164 -1.9145705
H 0.3581749 0.702577 2.073063
H -2.1184518 0.03971499 -1.2124206
H 1.6928074 -1.3019745 0.4974318
