9

O 0.8135665 -1.6772908 -0.76408947
C 0.26943812 -0.56436336 -0.24704373
N -0.30968872 -0.51156 0.9411503
N -0.6913121 0.7616103 1.0225682
N -0.40817967 1.5276369 -0.005561809
C 0.2138402 0.70596546 -0.84837973
H 0.6988487 -2.39324 -0.12622853
H -1.1686952 1.1164706 1.8353952
H 0.5821821 1.0347711 -1.8078103
