9

O 0.19178028 1.8399484 0.54913044
C 0.19054689 -0.6067395 0.6688849
N 0.04578488 -1.5860978 -0.38130915
N -0.19590732 -0.90887696 -1.4869019
N -0.1235807 0.39768082 -1.2803482
C 0.09297893 0.618517 0.011671575
H 0.56438375 -0.87316704 1.6455336
H 0.08032632 2.4767087 -0.17052114
H -0.84631306 -1.3579737 0.44385993
