11

O -1.4765846 1.6285889 1.2668713
C -0.752965 0.8419019 0.6921783
N -0.75664127 0.56027496 -0.65354985
C 0.22408347 -0.42729664 -1.0341768
C 0.8735054 -0.74436677 0.2887759
C 0.32251078 -0.026388623 1.2663343
H -1.3935223 1.011966 -1.2862288
H 0.9520373 -0.031744592 -1.7554116
H -0.23510899 -1.3188164 -1.4801317
H 1.6769198 -1.4690633 0.3749546
H 0.56576514 -0.025055148 2.3203843
