11

O -2.34011920 -0.42526579 1.73035371
C 0.63536374 0.32982439 -1.31146100
N -2.25212063 -0.01867715 0.08811375
C -1.31828044 -0.22697651 0.90167486
C 0.11481449 -0.27812731 1.09205800
C 0.98070897 -0.02697274 0.10197899
H 1.07454773 1.29962865 -1.56650901
H 1.06394617 -0.41114499 -1.99386364
H -0.44236893 0.38018292 -1.48091605
H 0.44041033 -0.53489800 2.09609915
H 2.04309751 -0.08757319 0.34247120
