9

O 1.2462146 0.85044324 0.7962496
C 0.084092975 -0.7320045 -0.56871325
C 0.10733018 -1.3571539 -1.5910963
C -2.0519087 1.5026892 0.8647953
C 0.1121491 0.05296316 0.6803696
N -1.0891058 0.83657414 0.7781068
H 1.3349726 1.3843044 -0.0049151657
H 0.12111781 -1.9204344 -2.4987664
H 0.13513719 -0.6173817 1.5439698
