9

O -1.3107884 -0.54326755 -0.9597656
C 0.5601238 0.69516647 -0.08197316
C 1.5195414 1.3884908 -0.28369388
C -0.6469905 -0.092630036 0.13385862
C 0.15022357 -1.627113 0.78724134
N -0.59411216 -1.2546962 1.6429957
H -0.6929499 -1.0282432 -1.5208832
H -1.358533 0.4576004 0.7459114
H 2.373485 2.0046918 -0.46369135
