10

N 0.3503673 0.84871095 0.9684903
C 0.41228664 -0.5979594 -1.3827249
C -0.119017676 -1.2233812 -0.27627993
C -0.5060251 -0.29844636 0.7152111
C 0.016852817 0.97629535 -0.3367468
H -0.5832208 1.7668173 -0.75106394
H 1.3124847 0.5593381 1.1345371
H -1.3977396 -0.34725672 1.3414159
H 0.9058821 0.59363604 -1.1672815
H -0.39187056 -2.2777543 -0.24555725
