10

N -1.2474328 -0.3897456 -0.7151649
C 1.0340828 0.5472805 -0.21824268
C 1.7564412 1.5043286 -0.1505628
C -0.95115346 -0.76159227 0.6577877
C 0.15231252 -0.5960473 -0.32846707
H -1.0356823 -0.008124393 1.4360019
H -1.2564436 -1.7643954 0.94634354
H 2.3953469 2.356053 -0.08674866
H -1.447647 0.60315025 -0.78609014
H 0.60017544 -1.4909079 -0.754857
