15

N -0.92698459 -0.39177096 -0.37882791
C -0.31160733 -1.29623057 0.58966676
O 1.14873725 0.46078575 0.19104131
N -0.66449181 1.86353506 0.43130926
C 1.16732915 -0.93327272 0.47863605
C -0.10167720 0.81784334 -0.36613544
O 0.06784679 1.35610439 -1.64103440
H -0.69304916 -1.06673235 1.59171460
H -0.54010405 -2.34110734 0.36472730
H 1.65373846 -1.49446083 -0.33374810
H 0.87381774 0.97000273 -2.00461515
H 1.73617501 -1.08993281 1.40057832
H -0.92991444 -0.78673943 -1.31122448
H -1.22084616 2.47228244 -0.15602706
H -1.25896992 1.45969409 1.14393864
