15

N -0.4740952 -2.2392173 1.2956127
C -0.3196233 -0.924637 0.899374
O -0.8018174 -0.0011388195 1.5447392
N 0.41719016 -0.7596471 -0.24088202
C 0.9325533 0.5388786 -0.6715288
C -0.1341957 1.5838424 -1.0141814
O -0.6124507 2.3025079 0.08776304
H -1.1882917 -2.3423135 2.0027914
H -0.47478947 -2.9578278 0.5885456
H 0.9698171 -1.5551561 -0.5239923
H 1.5288038 0.3377885 -1.5670524
H 1.5977145 0.96778363 0.09014448
H -0.94101244 1.0867119 -1.5759174
H 0.32187244 2.3222039 -1.6846757
H -0.82167566 1.6402216 0.7692593
