15

N -0.020456351 2.024081 0.054930508
C 0.46192268 -1.1615611 0.948763
O 1.1761901 0.92952865 -1.5130001
N -0.7947842 -0.12577258 -0.71329856
C 0.35768706 0.72289705 -0.4034115
C -0.9717616 -0.987586 0.45318115
O 1.0785452 0.08159201 0.631269
H 1.8492378 0.2383991 -1.4988095
H -0.60151577 -0.66247606 -1.5499399
H -1.5795711 -0.46396816 1.2006162
H 0.54483986 -1.3245375 2.0279613
H -1.4768695 -1.920471 0.19018386
H -0.9411072 1.9786417 0.4728655
H -0.045907307 2.6630805 -0.72998947
H 0.9635503 -1.9918478 0.42867854
