11

O -1.8731383 -0.08831394 -0.10149135
C -0.62290996 0.49684763 0.08185293
C 0.27251115 0.075299285 1.2642398
O 1.3672637 -0.18435057 0.3406192
C 0.54273516 -0.0016088285 -0.7434531
N 0.6989175 -0.26278046 -1.9602277
H -1.7516474 -0.94827604 -0.52198344
H -0.74754804 1.5824041 0.022492457
H 0.5444279 0.83995646 1.9942466
H -0.05122035 -0.8461222 1.7560332
H 1.6206087 -0.6630556 -2.1323285
