11

O -0.29958232 -0.04691333 1.14884888
C -0.14334135 1.28356198 0.65859318
C -0.05347989 -0.89653871 0.11228491
O 0.66862039 1.20804658 -0.47625774
C 0.39801007 -0.05206488 -1.05974582
N -0.17606138 -2.14746634 0.10978759
H -0.40024681 0.01005023 -1.81180753
H -1.13871248 1.68494216 0.41941544
H 0.35601001 1.89000789 1.41506273
H -0.51653286 -2.48691380 1.00602162
H 1.30531667 -0.44671192 -1.52220317
