11

C -0.13138257 0.47535889 -0.52271568
C -0.31048337 -0.89468485 -1.06767830
O -1.47401018 0.07994545 -0.06545086
C 0.13605223 -1.93875479 -0.19481360
C 0.72672235 0.83060398 0.66048553
N 0.51616096 -2.87971014 0.36827059
H -0.19668155 1.27383618 -1.26431021
H -2.11641390 0.29523719 -0.76022405
H 0.44559024 1.80874472 1.06214011
H 1.77239670 0.87355202 0.33996242
H 0.63204938 0.07587147 1.44433388
