10

N -0.87505902 -0.12701334 -0.47646109
C 1.16878397 -1.15967453 0.11682383
C 1.11656627 0.12491098 0.58761406
C -0.14606003 0.88682099 0.27026883
C -0.12957245 -1.22038806 -0.53601169
H -0.54254101 -2.08157090 -1.06053449
H 0.02233225 1.77514225 -0.35058698
H 1.89703199 0.62274256 1.15923547
H -0.71534756 1.18614793 1.15844452
H -1.79613417 -0.00711782 -0.86879250
