10

N 0.015918724 -0.4699961 0.9309579
C -0.057835937 1.5489644 -0.24065359
C -0.25396937 0.4027189 -1.0974206
C 0.098223925 0.92552376 0.98264146
C -0.19383562 -0.8495099 -0.3497112
H 0.7958356 -0.33470666 -1.0740683
H -0.39199245 -1.8710854 -0.64721745
H 0.291509 1.3568907 1.9611893
H -0.52579814 0.4022681 -2.1495
H 0.22194423 -1.1110679 1.6837822
