11

C -0.14513744 -0.100008585 -1.9571579
C 0.69081205 1.0110296 1.3742712
N -0.5391626 -0.878049 0.2880524
C 0.12716779 0.18665415 0.27549186
C -0.78769195 -1.1803359 -1.1259294
O 0.38766462 0.68838084 -1.0437672
H 0.2810747 2.024708 1.3304883
H 1.7767793 1.084698 1.2634856
H -0.37326026 -2.160014 -1.3996487
H -1.8644738 -1.2316862 -1.3367431
H 0.44622755 0.5546233 2.3314564
