11

O -1.23608251 -2.01853212 0.09328241
C 0.69652303 0.62572180 -0.24560962
N 0.52891543 0.83954514 1.16590180
C 0.67378423 -0.53935485 0.70918221
C -0.60461957 -1.00037233 0.05212064
C -0.63894927 0.23381044 -0.88603540
H 1.56392615 1.04571310 -0.74279380
H -0.42035814 1.09092424 1.43167126
H 1.47143972 -1.14341217 1.12585533
H -1.45083450 0.95774953 -0.77461944
H -0.58374466 -0.09179274 -1.92895540
