11

N -1.793984 -1.6175044 0.035175968
C 0.7651602 0.6343647 0.122497395
N 1.4590313 1.661781 0.69561756
N 0.060275033 -1.0637829 -0.8989279
C -0.89069617 -0.667842 -0.091609724
N 1.1868367 -0.26919264 -0.69437945
O -0.5496709 0.48276475 0.53566945
H -2.780721 -1.3787653 0.07444914
H 2.357153 1.8058242 0.25856477
H 0.9272063 2.5103097 0.82280004
H -0.7405908 -2.0979567 -0.85985726
