12

C 0.64440999 -0.95786752 0.42261434
C -0.07065867 0.18363179 -0.24185600
C -0.84215520 -0.75160676 0.62185389
O -0.36215947 0.07136477 -1.60808771
N 0.18448322 1.49095402 0.27051144
H 1.30045660 -0.72350784 1.25457382
H 1.03291435 1.87713316 -0.13155862
H -1.17490528 -0.38036719 1.58489530
H 0.94914448 -1.78728674 -0.20716995
H 0.43220842 0.30600485 -2.10435406
H -1.51409513 -1.43980575 0.11948039
H -0.57964262 2.11135291 0.01909740
