9

O -0.84157289 -1.09790327 1.62919195
C -0.27637486 0.15207315 1.30511257
C 0.03497520 0.29139996 -0.12545552
C 0.29573263 0.34329898 -1.29624896
C 0.83693575 0.45199358 -3.73874846
N 0.58247329 0.40282852 -2.58637204
H -0.24639478 -1.79517281 1.32791738
H 0.63471209 0.35227499 1.88911002
H -1.02048624 0.89920690 1.59549325
