9

O -0.24216785 -1.2128404 1.7578536
C -0.18993706 0.12775818 1.3342081
C 0.116044015 0.26373118 -0.1012252
C 0.33897603 0.33203518 -1.2835313
C 0.598058 0.413302 -2.637267
N 0.8135649 0.47962233 -3.7770755
H -0.91432434 -1.6755114 1.2432506
H 0.6022833 0.60201347 1.9186313
H -1.1224968 0.66988945 1.5451556
