9

O -0.30533865 -2.0308216 0.5919755
C -0.14734617 0.273695 -0.07250129
C -0.8543285 -0.7394177 0.72540504
C 1.7910204 2.7174363 -2.0714211
C 0.48123592 1.0659366 -0.7195585
N 1.1718373 1.9401109 -1.4330503
H 0.63207906 -1.9944845 0.8180636
H -0.8785205 -0.41227114 1.7759302
H -1.8906391 -0.82018405 0.3851571
