10

O -1.68799436 0.15128991 1.33280577
C 0.06903169 0.30335036 -1.63745548
N 0.46620092 -0.23868163 0.63386834
C -0.77996435 0.11988268 0.37980441
C 1.15267070 -0.15314366 -0.66027020
N -1.05630517 0.44210794 -0.89132134
H -2.51112477 0.43917380 0.90343584
H 0.82162970 -0.51282091 1.53396924
H 1.55459882 -1.12423997 -0.96369545
H 1.97125687 0.57308136 -0.63114100
