11

N -2.6039736 -0.89022106 1.3770757
C -0.36371732 0.3863763 0.9145671
C -1.6157658 -0.3218606 1.1896529
C 1.817756 -0.44891316 -1.0216589
C 0.13522418 0.14699171 -0.5038282
O 1.3412776 0.8360094 -0.700589
H 0.40986943 0.06819491 1.6192365
H 1.5479773 -0.5885955 -2.1032355
H 0.4348259 -0.978002 -0.5122546
H -0.58792627 0.3260061 -1.3040568
H -0.51554793 1.464014 1.0450909
