11

O 1.2541 -0.65429944 -2.1069777
C 0.62278974 -0.3467677 -1.1164058
N 1.1415137 0.036267724 0.09874987
C 0.12906665 0.33862108 1.0812201
C -1.1397994 0.09171594 0.3068167
C -0.8610244 -0.29430586 -0.9346946
H 2.1342993 0.08394069 0.2576506
H 0.19041096 1.3760188 1.4334681
H 0.19619852 -0.31659177 1.9603446
H -2.1193244 0.2276982 0.7525992
H -1.5482308 -0.54229766 -1.732771
