11

O 2.034229 1.3313196 -0.046462804
C 0.9106891 -0.8554035 -0.07173296
N -0.27099723 1.0715632 -0.036130514
C -0.40796974 -1.3231388 -0.1803505
C 1.0241231 0.66193366 -0.047302242
C -1.2138991 -0.03486901 -0.08792649
H -1.8470827 0.018607125 -0.9835249
H -0.51140493 2.0496094 -0.08275103
H 1.8050321 -1.4717056 -0.15578265
H -1.8805921 -0.05541447 0.78156847
H 0.35787234 -1.392502 0.9103956
