11

O -0.75008276 -2.20281225 -0.53310024
C 0.28610187 1.15175211 0.16924903
N 0.69609365 -0.96140298 0.79788156
C 1.11051122 0.26447253 1.09045630
C -0.31513280 -1.13376615 -0.20163165
C -0.64572077 0.26486591 -0.67308239
H 0.98262391 1.74544611 -0.43457281
H -0.25149510 1.87765561 0.78988781
H 1.06938018 -1.78869102 1.25390778
H -1.71126674 0.45253862 -0.50866023
H -0.47101280 0.32994151 -1.75033508
