9

O 0.81043501 -1.67559652 -0.76563526
C 0.26677005 -0.56243060 -0.24999641
N -0.31242426 -0.51538398 0.93859918
N -0.69130801 0.75604458 1.02155791
N -0.40635775 1.52486656 -0.00503179
C 0.21386604 0.70776451 -0.84968287
H 0.70638644 -2.38455946 -0.11734047
H -1.16940639 1.10811471 1.83468707
H 0.58203889 1.04118025 -1.80715710
