9

O 0.7543096 0.24368328 -2.078607
C 0.26585707 0.10898538 -0.83707446
N 0.9909019 -0.31106538 0.17772861
N 0.07906776 -0.27857038 1.1834713
C -1.1057307 0.14796335 0.720096
N -1.029529 0.40723822 -0.5689489
H 1.685319 -0.016271822 -2.054124
H 0.34326145 -0.55532783 2.1144798
H -1.9834571 0.2533651 1.3429788
