9

O 1.58506206 -0.47530990 -2.24166510
C 0.82802501 0.12196486 -0.22548801
N 1.29457128 0.50284662 -1.29476282
N 0.50373467 -0.16359428 0.92243409
C -0.82777773 -0.15822688 1.38596632
N -1.75281822 0.48537985 0.80883846
H 1.91600980 0.05356490 -2.97833546
H -0.92350417 -0.74686230 2.30357004
H -2.62330272 0.38023704 1.31944263
