10

O -2.12453 -0.06611076 -0.6641267
C 1.199419 0.5010894 0.7421575
N 0.026583768 -0.88240576 -0.718928
C -0.2837003 0.83512306 0.7454061
C -0.9765899 -0.053916138 -0.28716013
N 1.2507051 -0.46272892 -0.13209765
H -0.70815736 0.6599057 1.7402133
H 2.0770802 -0.9827093 -0.395297
H -0.010716341 -1.4424938 -1.5556365
H -0.4500943 1.8942463 0.5254691
