10

O 2.3647325 -0.39283833 0.27574667
C 1.1736442 -0.19589192 0.13748956
N 0.32866126 0.57032573 0.9245195
C -0.9746654 0.5516421 0.43478784
C -0.9754848 -0.22536543 -0.6623389
N 0.32625777 -0.68208134 -0.8469063
H 0.65837574 1.0631673 1.7363689
H -1.7757125 1.0915678 0.9110343
H -1.779448 -0.49677232 -1.3286043
H 0.653639 -1.2837535 -1.5820972
