10

O -1.2914656 1.2021525 1.4689176
C -0.61884177 0.55537456 0.7016902
N -0.9088883 -0.5973393 0.02553078
C 1.3030168 -0.3135376 -0.5810923
C 0.16733617 -1.053075 -0.7331158
N 0.7252312 0.81030846 0.2985329
H 1.3236088 1.3866824 0.8754697
H -1.8079019 -1.0437398 0.12528887
H 1.0594914 0.98610324 -0.83083385
H 0.048413254 -1.9329296 -1.3503882
