10

O -0.50863608 -1.61572347 1.44561045
C 0.23018736 1.39784442 -0.48325883
N 0.27043280 0.35586003 -1.26335301
C -0.05217995 0.76025640 0.86766016
C -0.20445441 -0.74691279 0.66288413
N 0.09478480 -0.92023913 -0.66361119
H 0.77032628 0.96591166 1.56170318
H -0.95047903 1.18643975 1.32507440
H -0.12089404 -1.74656956 -1.19824348
H 0.47091205 0.36313279 -2.25446575
