9

C -0.0741738 -0.2226424 -0.32684773
C -0.6463873 0.8858635 0.13817649
C -1.5771006 1.7548819 -0.12680776
C 1.058182 -0.9450254 0.32953668
O -2.360563 2.6221788 -0.19557476
H 0.7605864 -1.9790384 0.5442038
H -0.43891704 -0.66071826 -1.2594155
H 1.9117147 -0.9995736 -0.3575987
H 1.3666588 -0.4559261 1.2543274
