9

C 0.7749699 0.12073276 -1.6554433
C 0.1511379 0.024426557 -0.3340521
C -0.3501157 -0.043442883 0.75857675
C -0.9724077 -0.15149415 2.0688422
O -0.65440017 0.5154032 3.0259402
H 0.81573683 1.1615119 -1.9834601
H 0.21683572 -0.45611763 -2.3993485
H 1.7976111 -0.26454625 -1.6182059
H -1.7793679 -0.9064736 2.137151
