12

N 1.33004834 -3.06434532 -0.97566349
C 0.26972620 -1.24904715 0.49313097
C 0.87194895 -2.24575034 -0.28087983
O -0.90126564 2.06893703 -0.58426207
C -0.87873284 0.89320275 0.15751288
N 0.32080350 0.07894777 -0.18411954
H 0.30876799 -0.07176206 -1.19278837
H -1.73732747 0.27636473 -0.10807439
H -0.85652469 1.02576284 1.24509279
H 0.60720042 -1.13557852 1.51983893
H 1.16616110 0.63726787 -0.00726262
H -0.50080556 2.78600003 -0.08252499
