12

N -3.3503308 -0.00491216 -0.3085511
C 1.0808452 -0.61786795 -0.3506488
C -0.9013646 -0.3803519 0.41852498
O 2.2967632 -0.09363883 -0.10007636
C -2.2623694 -0.17836404 0.06767355
N -0.041478574 0.8069829 0.26547238
H 0.7326709 -0.5991519 -1.3765985
H -0.7345345 -0.8540273 1.3788062
H 2.436071 0.7093871 -0.62238485
H 1.0284601 -1.5738742 0.1518671
H -0.29773563 1.3226689 -0.5726638
H 0.013003288 1.4631494 1.0485792
