13

N 2.9921398 0.76844716 -0.7517407
C 1.9200954 0.35462278 -0.5805569
C 0.61725086 -0.18088695 -0.40540838
N -1.756702 -0.0033735053 -0.024836807
C -0.54437685 0.76494527 -0.3319061
N 0.6232797 -1.100446 0.8897414
H -2.0123284 -0.54915994 -0.84497774
H -0.4228751 1.4933732 0.48958513
H -0.34005758 -1.0824618 1.231838
H 0.7054407 -1.5385145 -0.16767772
H 1.3306553 -0.88831383 1.595525
H -0.5824334 1.3370032 -1.2700737
H -2.5300884 0.62476504 0.17048846
