13

N -0.56291674 -1.43504784 -0.31434753
C -0.39951928 -0.27501959 0.52989723
C -1.71598726 0.13325908 1.04685208
N -2.73470599 0.46058431 1.48376895
C 0.23616988 0.85566977 -0.29208149
N 1.50234031 0.37126324 -0.82179691
H -0.43601266 1.07727057 -1.12728677
H 0.30442506 -1.57686415 -0.81837762
H 1.83287752 0.96463546 -1.56995017
H 2.21489380 0.37428769 -0.09412636
H 0.32753437 1.75720736 0.33167953
H -0.80307570 -2.25740892 0.22679276
H 0.23397655 -0.44983677 1.41897573
