10

O -0.10601953 1.07630630 -2.54764560
C 0.60967068 0.30772308 -1.67685395
C 0.55231617 0.33259316 -0.36517074
N 0.58664255 0.45019900 0.86525574
N -0.33611860 -1.58594634 1.58612340
C -0.28241846 -0.32721323 1.67240558
H -0.52939357 1.79755220 -2.06701661
H 1.26514864 -0.39385117 -2.18033727
H -0.95258442 -1.95210694 2.30727432
H -0.80724360 0.29474423 2.40596522
