11

O 0.741945 -2.0154986 1.3637196
C 0.17204915 0.6646553 -0.6348564
N -1.1309481 0.5717101 -0.15319106
C -1.2087402 -0.76404095 0.7507151
O 0.4673559 1.6499624 -1.4913765
C 0.14118363 -1.0129713 0.68772787
N 0.9475347 -0.22780474 -0.1509157
H 1.4013762 1.5488013 -1.7260044
H -1.2666264 0.7184915 0.9409172
H -1.9334482 0.8935048 -0.6798219
H 1.6683184 -2.0268102 1.093086
