11

O -1.3378772 2.0586762 0.8774875
C -0.65135825 0.9061927 0.6744269
N -0.22645731 0.6880284 -0.6996335
C -0.35163698 -0.013732966 1.6145478
O 0.97408503 -1.0961877 -1.6593099
C 0.3773493 -0.40890083 -0.68176425
N 0.41198945 -1.0049797 0.65569454
H 0.8735789 -0.58816534 -2.4779649
H 1.3672639 -1.140638 0.9895873
H -1.3925977 2.517997 0.030503122
H -0.044339087 -1.9182898 0.676425
