10

O 1.19930509 -0.03687897 -0.52015163
C -0.76097375 -0.35075354 0.19695125
C 0.24203790 -1.13657143 -0.62514956
O 0.77087818 1.61291875 1.04971167
C 0.26821310 0.68011100 0.22751631
O -0.89680484 0.92934955 -0.49557644
H -0.01607491 -1.33366956 -1.66776384
H -1.56509897 -0.66924116 0.84556750
H 0.62618782 -2.02873364 -0.12439451
H 0.13233032 2.33346882 1.11328951
