10

O -0.020139484 -1.3765993 -0.9549507
C -0.4057856 -0.38590118 -0.04989667
C 0.68620807 0.008407826 0.94358736
O 0.63959116 1.3831648 0.46713156
C -0.25822124 1.0715045 -0.50614136
O -0.6927254 1.7723085 -1.3648422
H -0.6583925 -1.3937763 -1.6782019
H -1.3834102 -0.58124876 0.41283897
H 1.6526644 -0.44856346 0.7263124
H 0.44021073 -0.049296815 2.0041628
