10

O -1.1964015 0.17074548 -0.67306393
C -0.5486452 -0.46535885 0.47257635
C -0.040905923 0.74944794 -0.15135214
O 0.020142693 2.0720294 0.06279508
C 0.69886404 -1.11535 -0.093660414
O 1.1118029 0.1634318 -0.66890574
H 1.4134424 -1.4431752 0.66541046
H 0.5570929 -1.8680357 -0.8720431
H -1.1547772 -0.70410323 1.3353393
H -0.86061525 2.4403687 -0.077096015
