11

N 1.0401523 0.13030317 1.7681426
C 0.37282568 0.059797034 0.54115576
C -0.97183526 0.12520279 0.27168688
N -1.0547476 0.06425758 -1.1117826
C 0.20784785 -0.02209385 -1.5864024
N 1.0946486 -0.033947293 -0.6209678
H 2.0108562 -0.12969333 1.64671
H 0.61719006 -0.4255781 2.496686
H -1.8452232 0.22287895 0.8958114
H -1.8995808 0.08623053 -1.6566479
H 0.42786613 -0.077357434 -2.6443918
