11

N 1.3599313 1.3992226 -0.9970218
C -0.3155373 -0.21929236 0.29340318
C -0.0905924 -0.04577516 1.5872056
N -0.39529008 -0.1772082 -0.9884409
C 0.47066313 0.7176808 -1.6069361
N -1.0457324 -1.1670873 1.196441
H 1.8716202 1.9761986 -1.6607766
H 0.6428325 -0.05822664 2.3724873
H -2.0406957 -1.0479457 1.3565309
H 0.30630735 0.76594746 -2.6884053
H -0.76350677 -2.143514 1.1355133
