9

O 0.4260529 1.7919812 -0.5089809
C -0.42341873 -1.6884668 0.53988904
C 0.35733148 0.4121835 -0.63877577
O -0.71244276 0.4302174 1.493278
C -0.30253923 -0.21743423 0.56384695
N -0.5028264 -2.8377903 0.4868023
H -0.22068878 0.116901994 -1.5290118
H 1.3567969 -0.0360742 -0.7460219
H 0.021734793 2.0284817 0.33897382
