10

C 0.6161956 1.5745629 0.35625467
N 0.7940183 1.0434705 -0.85405385
N 0.46399322 0.67303324 1.3312076
C -0.7993862 -1.191439 -0.32088023
N 0.6144019 -0.4803569 0.7089711
N 0.81127787 -0.25748676 -0.62081605
H 0.6051179 2.6418667 0.5369381
H -1.463735 -1.0273038 0.5240795
H -0.45509565 -2.2135394 -0.41981405
H -1.1867878 -0.762808 -1.2418867
