10

C 0.25949165 -0.6249557 -1.434468
N 0.113082856 -0.06984025 -0.10541047
N -1.0270463 0.40993094 0.36234283
C -0.6637201 0.7856628 1.5767863
N 0.63687664 0.5428177 1.8279281
N 1.1132964 -0.0020993643 0.74450785
H -0.3815218 -1.5010053 -1.5375031
H 1.3058429 -0.9050968 -1.5505519
H -0.018243954 0.12632264 -2.1744719
H -1.3380585 1.2382632 2.2908404
