10

O 0.76977664 -1.1497118 1.701643
C -0.6966661 -0.05585372 -1.1944504
N -0.11513993 -1.075957 -0.51686424
C 0.3989539 -0.42069963 0.62476534
C -0.5840703 1.1161917 -0.44565174
N 0.09437912 0.8941123 0.6857788
H -0.93680674 2.1066272 -0.7050129
H 0.9964289 -0.51013947 2.3919022
H 1.1620973 -0.69981205 -0.35191053
H -1.0889528 -0.20475782 -2.1901994
