10

O -0.400452 1.0230758 1.7148076
C 0.95943487 -0.9488041 -0.4301478
N -1.0231062 0.16441768 -0.4093715
C 0.0066435407 0.8137807 0.4055203
C -0.439131 -0.84327775 -0.9287965
N 1.2128116 -0.0031087582 0.38998362
H 0.25819024 1.756527 -0.11322214
H 1.6848134 -1.7150395 -0.6882818
H -1.3313786 1.2751772 1.6805739
H -0.92782587 -1.5227482 -1.6210656
