10

N 0.95275253 -1.3988847 -0.024975043
C -1.7046931 0.8786075 -0.003981075
O -2.8894963 0.8066234 -0.11510596
N 0.98099333 0.9766927 0.29443875
C 0.4203577 -0.13590969 0.07580353
O -0.9394449 -0.24984258 -0.066964515
H 1.9372208 -1.4584931 -0.2281168
H -1.1143306 1.7918693 0.14883237
H 1.9870476 0.88687146 0.38251084
H 0.3695925 -2.0975342 -0.46244213
