10

N 0.53506093 -1.46246095 0.66344359
C 0.12726296 -0.17866754 0.39089680
O -0.34016092 -0.16034539 -0.89891162
N 0.10809044 0.85052929 1.12600497
C -0.80861608 1.01424472 -1.41258383
O -1.22951756 1.05571322 -2.52721892
H 0.48089088 0.66660601 2.05075456
H 1.15673062 -1.58157617 1.44660122
H 0.71310964 -2.05511575 -0.13444308
H -0.74285108 1.85107262 -0.70454360
