10

N 0.6040941 -0.8085373 1.5057423
C 0.013872164 0.16920601 0.7415922
O -0.40340018 1.2163739 1.1865355
N -0.098840475 -0.17555112 -0.6067946
C -0.638089 0.67368734 -1.5605597
O -0.76913637 0.35017544 -2.7152348
H 0.83101934 -0.5150714 2.444169
H 1.2479969 -1.4571525 1.0807699
H 0.13400315 -1.1036919 -0.9310383
H -0.9215198 1.6505616 -1.1451814
