12

O -0.6647617 -1.4510784 0.88168645
C -0.059388507 -0.22397563 1.1993325
C 0.44593593 0.4550946 -0.07365702
O 1.3278191 -0.42458883 -0.7225788
C -0.71012473 0.7765777 -0.996283
O -0.72344375 0.38024956 -2.1375906
H -0.031727724 -1.910427 0.30767995
H 0.7875793 -0.34737062 1.8886285
H -0.8141276 0.39909658 1.6918266
H 0.9412087 1.4049783 0.18934275
H 1.026836 -0.4617072 -1.6466041
H -1.525805 1.4031508 -0.5817833
