10

C 1.4397526 0.79696834 1.1923548
O -0.05087514 -0.69411933 0.07757261
C 0.31405184 0.5763983 0.18274082
O -0.15660703 1.5029923 -0.42720294
C -1.1116058 -0.93637997 -0.8604086
O 1.9419001 -0.08803719 1.8287084
H -2.0097904 -0.38567537 -0.5693331
H -1.2856549 -2.0101075 -0.8236737
H 1.7292706 1.8626134 1.2636992
H -0.8104416 -0.62465274 -1.8644575
