10

C -0.9917466 0.38457036 -1.3120798
O -0.53885 -0.3931396 -0.19261411
C 0.52202 0.09647924 0.43253642
O 1.1164109 1.1068606 0.14857934
C 0.9657335 -0.765494 1.6127888
O 0.40543127 -1.7760602 1.9415009
H -1.8518163 -0.15504432 -1.7059147
H -1.2778116 1.3877716 -0.9842871
H -0.20188549 0.46246186 -2.0633192
H 1.8525145 -0.34840566 2.1228096
