9

O 0.96441674 0.5930281 0.7497628
C -0.39785886 0.7927421 0.3361654
C -0.64146894 -0.37599578 -0.44618496
O -1.5967985 -0.22033931 -1.2837218
C 1.2802197 -0.597801 0.26863113
N 0.39461467 -1.2652932 -0.4224872
H -1.2618473 0.9756593 -0.84950083
H -1.0326967 1.0366592 1.1848416
H 2.291419 -0.93865913 0.46249375
