9

O -1.1526219 -1.2870136 -1.0811527
C -0.3788907 -0.47473574 -0.34612194
C 0.47955427 -0.78997517 0.6525444
O 1.0305166 0.39401197 1.0841186
C 0.46719962 1.331405 0.31698903
N -0.37955222 0.8879566 -0.5540658
H -1.6307727 -0.7241812 -1.7051367
H 0.80070174 -1.6932651 1.1441809
H 0.7638653 2.3557973 0.48864433
