9

O -0.22284352 -1.12194519 -1.94276169
C -0.34707585 -0.75777793 0.47212097
C -0.05324058 -0.41386617 -0.98867229
O 0.04071879 0.42765224 1.17268867
C 0.47110412 1.26976939 0.22129615
N 0.46397989 0.91291701 -1.00621712
H -1.40775285 -0.95124369 0.64774171
H 0.24888051 -1.59983185 0.82902097
H 0.80622951 2.23432625 0.59478274
