10

O -0.38350508 1.637597 -1.2152767
C -0.1708706 0.6053481 -0.35618025
C 0.514612 -0.57378966 -0.5366608
N 0.41027474 -1.2356268 0.6492838
N -0.2861216 -0.5685214 1.5673615
C -0.6496577 0.55733466 0.972556
H -0.035494626 1.4032174 -2.0832884
H 1.0504441 -0.98253095 -1.3809025
H 0.7891239 -2.1378121 0.882703
H -1.2388053 1.2947835 1.5004044
