11

C -0.88337079 0.90631645 0.67813038
C 1.24271478 -0.13324179 -0.01615631
N 2.46708814 -0.21998864 0.12594407
C -0.07189516 -0.16575051 0.00454541
N -0.81667779 -1.24298650 -0.54769562
H -1.55335414 1.39280086 -0.04234860
H -1.50086283 0.45571208 1.46107135
H -0.24347076 1.67355991 1.12250138
H -1.40685981 -0.93729338 -1.31661335
H -0.22485736 -1.99921678 -0.86694397
H 2.99154616 0.27008812 -0.60243464
