11

C 0.22705679 -0.10279675 -0.11976021
C 1.52889 0.1937957 -0.82543623
N 0.043761976 -1.4208173 0.28348494
C -0.3714411 0.9972668 0.7244441
N 0.6642864 0.27409124 -1.7626443
H -0.8916201 -1.7963859 0.21627663
H -1.3920075 0.7611804 1.0415374
H -0.43852267 0.09867766 -1.302574
H -0.3742979 1.9409148 0.17393953
H 0.25375164 1.1153803 1.6152766
H 0.7501423 -2.0613067 -0.044544198
