10

O 0.42526818 -0.26534282 0.65495715
C 1.98685159 0.30321075 -0.98047096
N 3.10459034 0.37911951 -1.26976426
C 0.55508029 0.22795911 -0.67520337
C -0.84522314 -0.37584925 1.08117448
N -1.83178582 -0.06450179 0.36186885
H 0.09848716 1.21900641 -0.76241100
H -2.70254966 -0.22086751 0.86601420
H 0.05496046 -0.44212157 -1.38125169
H -0.84567920 -0.76061275 2.10508646
