10

O 1.6654335 -0.12866189 -1.4481565
C 1.1619855 0.7888565 -0.84344363
N 0.2773073 0.64593685 0.18979214
C -0.21530832 -0.65826756 0.57397556
C -1.6509175 -0.81567365 0.28374287
N -2.781854 -0.9167572 0.0781085
H 1.3848373 1.8507464 -1.0539619
H -0.15069051 1.471039 0.58053863
H 0.35667005 -1.3921269 0.00016997874
H -0.047463115 -0.84509146 1.6392342
