11

N -0.42341602 -1.6485592 -1.0643761
C -0.23328225 -0.48802927 -0.35904515
C 1.011744 -0.13125819 0.19880384
N 1.163242 1.0171647 0.82221663
C 0.06554458 1.7894831 0.87319404
N -1.122181 1.491717 0.3719689
N -1.2768413 0.3265062 -0.24884287
H 0.17944081 -2.430714 -0.8630015
H -1.3885086 -1.8863256 -1.2365209
H 1.8743607 -0.78983986 0.13327768
H 0.14989708 2.7498555 1.3723253
