11

C -0.8236401 0.7453777 -0.8344296
C 0.49992833 0.62587774 -0.12855539
O 0.49410874 0.68657696 1.2901342
C 0.86969507 -0.5418247 0.6916313
C -0.05354902 -1.6553181 0.853706
N -0.77103704 -2.5548635 0.9611138
H -1.1560613 1.7875278 -0.83096176
H -0.7235795 0.4218834 -1.8759866
H -1.5885044 0.13539253 -0.3481595
H 1.3353418 1.1633164 -0.5804875
H 1.9172975 -0.8139458 0.8019951
