11

C 1.4448639 -0.5267329 0.63170564
C 0.1454735 -0.21621044 0.01991287
O 0.10004317 -0.54468226 -1.387467
C -0.29293546 1.2128979 0.25883713
C -0.81969273 -1.3331914 -0.10385823
N 2.453667 -0.750495 1.1422439
H -1.2183917 1.4003334 -0.29150966
H 0.4735779 1.9167243 -0.08098154
H -0.46718732 1.3740798 1.3252649
H 0.0054436047 -1.6169451 -1.2619685
H -1.8248619 -0.9157782 -0.25217953
