9

O 0.095038444 0.81520706 1.4999402
C -0.32196018 -0.35258192 -0.6760023
C -0.69859034 0.071622476 0.6873308
O -0.35664666 -1.2652551 0.4266617
C 1.0053546 -0.010613901 -1.1560416
N 2.0647004 0.29886222 -1.5045651
H -1.7455957 0.25264385 0.91532207
H 1.0265015 0.7049361 1.2572751
H -1.0688024 -0.5148209 -1.4499205
