9

O -0.69868153 1.3814589 -0.7843701
C -0.24789342 0.20484191 -0.97385985
C 1.1827338 -0.20124537 1.0183419
O -1.232819 -0.35101554 0.76569235
C -0.019277805 -0.63942003 0.23950215
N 2.0876517 0.1704248 1.6322974
H -1.0256035 1.2544833 0.17771378
H 0.14580151 -1.6882353 -0.065406635
H -0.19191195 -0.13129269 -2.0099108
