11

O -0.10494892 2.54066019 0.03637016
C -0.41232732 1.39373589 0.11970217
C -0.43642522 0.06914679 -0.55621111
C 0.81802132 -0.72861919 -0.63772384
C -1.03374909 0.30465551 0.86259390
N 1.41874227 -1.12001777 0.41059656
H 1.17322579 -0.92608526 -1.65770599
H -1.12913869 -0.04703997 -1.38542305
H 2.27683733 -1.61428174 0.16952204
H -0.45537242 -0.15022807 1.66343965
H -2.11486484 0.27807402 0.97483994
