11

O 0.70575327 1.4262702 1.6244451
C 0.3592454 1.0785232 0.57193077
C -0.93497336 -0.20448826 -0.06872769
C -0.33639333 1.0424489 -0.67776066
C 0.024508096 -1.2210726 0.09718883
N 1.2695396 -0.88841224 -0.13031371
H -1.0302168 1.8886384 -0.7190771
H 0.27785844 0.9292126 -1.5739005
H -1.980157 -0.26552752 0.20164211
H -0.28523788 -2.19677 0.48564667
H 1.9300736 -1.588823 0.18892626
