11

O -0.8147485 2.1588497 -0.70133317
C -0.42076886 1.0847629 -0.31158054
C 0.34782505 0.00078398286 -1.0768167
C 0.54133767 -1.0872911 -0.056004744
C -0.016749859 -0.6943934 1.0918435
N -0.5870647 0.5800113 0.9637123
H 1.2853582 0.41876733 -1.4583926
H -0.23694664 -0.3120966 -1.9490546
H 1.048402 -2.0246491 -0.23084591
H -0.07536345 -1.2096606 2.041398
H -1.0712807 1.084916 1.6870749
