10

N 0.2275624 1.767941 0.3939258
C -0.2033419 0.4801366 0.16318177
N -1.4040383 0.050170247 0.35786873
O -1.3371549 -1.3388492 0.1052615
C -0.08111721 -1.698847 -0.25937703
O 0.28106558 -2.8112447 -0.5217744
N 0.644982 -0.5147232 -0.25327885
H 0.7557476 2.1737068 -0.36647886
H -0.53298026 2.369333 0.6801924
H 1.649275 -0.4776234 -0.29952112
