10

N 0.72796264 -0.00821290 -0.31081477
C -0.42990931 0.58789736 0.12430452
N -0.54771603 1.94905581 0.15120940
O -0.83462032 -1.49692311 0.20388814
C 0.38202373 -1.25724355 -0.22753358
O 1.11439615 -2.31807591 -0.52600196
N -1.40488044 -0.22116900 0.46355195
H 0.32805113 2.43795655 0.24364667
H -1.30201103 2.30592620 0.71396756
H 1.96670349 -1.97921130 -0.83621799
