10

N 0.16280153 0.476744 -0.61058474
C 1.2916582 -0.09479529 -0.31781772
N -2.0067055 0.09279056 0.29359567
O 2.4739306 0.12627211 -0.86934215
C -0.66418666 -0.1618094 0.28030458
O 1.2578675 -0.9956477 0.6367067
N -0.09536656 -1.0420581 1.0688804
H -2.2577875 1.0051669 -0.051460758
H 2.3317506 0.7967557 -1.5532483
H -2.4939618 -0.20341882 1.1229662
