9

N -0.71672618 -1.65970744 0.76505556
C 0.01537407 -0.77560961 0.26288538
O -0.31627853 -0.04307484 -0.86855920
C -0.32713632 1.32232726 -0.76520829
O -0.17289772 1.94105543 0.23913617
C 2.37153154 -0.28666095 1.13020865
N 1.27948499 -0.51687612 0.72765501
H -1.60567689 -1.71207197 0.27373808
H -0.52767501 1.73061852 -1.76491127
