9

N 1.2961003 0.19129351 0.8469093
C -0.7851506 0.9405258 -0.9695674
O -0.17685229 -0.28170457 -0.8635094
C 0.3211309 -0.6517275 0.37820846
O -1.0153301 1.6791513 -0.065813206
C 2.1353703 0.9256515 1.251827
N -0.005628554 -1.700808 0.98023254
H -0.7303512 -2.198053 0.46847793
H -1.0392888 1.0956707 -2.0267653
