11

C 0.48890382 0.099515446 0.2523992
C 0.1979342 -2.2346826 -1.0136462
C 0.41048166 -0.94158375 -0.3809306
C 0.0042564627 1.3127625 1.1278723
O 1.1850176 1.3914478 0.4914021
N -0.728025 2.4233515 1.0425019
H -0.1598879 -2.1094718 -2.041015
H -0.36439836 3.2431514 0.563684
H -1.6286619 2.4699516 1.4895674
H 1.1310816 -2.8090656 -1.056719
H -0.5367021 -2.8453765 -0.47511598
