11

C -0.73076886 -0.17249908 -2.3151865
C -0.16599828 -0.1219472 -0.9688363
C 0.31707597 -0.087861225 0.13355795
C 0.97918284 -0.09881435 1.4389553
O 2.086787 -0.5650357 1.6108472
N 0.2460691 0.47557303 2.4359531
H 0.011237784 0.14817728 -3.0519202
H -1.6051332 0.47972086 -2.4015665
H -1.0348371 -1.1926965 -2.560306
H 0.61351264 0.40045992 3.3745253
H -0.7171277 0.7349229 2.303976
