11

C 1.3795718 0.007678149 0.02191889
N 0.23995006 -0.6259596 -0.63186944
C -0.9966091 -0.5013317 0.109589376
C -1.4282806 0.90055037 0.33877182
N -1.7071534 2.013556 0.4724348
H 1.2459794 1.0836807 0.20936708
H 2.265091 -0.13371997 -0.60306036
H 1.5645698 -0.4908901 0.9809775
H 0.117230326 -0.23953548 -1.5609251
H -1.7959017 -1.0258142 -0.42271
H -0.8844471 -0.9882138 1.0855056
