11

N 0.73793936 0.34655846 -2.04799428
C 0.25565842 0.12694482 -0.88894146
C -0.57544799 0.90008406 0.04266139
C -0.60396187 0.22600299 1.20205228
N 0.17497366 -0.92184938 1.15416495
N 0.52210613 -1.07636915 -0.20957972
H 1.45920857 -1.43385651 -0.33505432
H 0.43958882 1.25994779 -2.38399246
H -1.01561792 1.86330469 -0.17102173
H -1.11785178 0.46362880 2.12412137
H -0.27659519 -1.75439671 1.51358427
