11

N 1.1590846 -0.73207295 -0.3730075
C -0.121627234 -1.1983718 -0.64457244
C -1.0700791 -0.21582131 -0.5895934
C -0.22646494 0.86080456 -0.11436221
N 1.0150049 0.66262937 -0.71144825
N 0.008495671 1.1215045 1.1703445
H -0.82995325 1.0209644 1.742853
H -0.2750185 -2.2660468 -0.7476562
H 0.7511009 -0.12504593 1.0437444
H 1.7350931 1.1739804 -0.21082965
H -2.1456358 -0.30252463 -0.56547225
