11

N 1.0896269 -0.41000795 0.34597066
C -0.8912274 0.40863246 0.9484251
C -0.98538196 0.18575191 -0.37098566
C 0.3382571 -0.25086966 -0.8332705
N 0.86160207 -0.45534977 -1.9771789
N 0.39842328 0.20299356 1.4186512
H 0.17358889 -0.2964377 -2.7103724
H 2.0515018 -0.1068375 0.27824742
H -1.6517863 0.72784805 1.6487192
H 0.4570723 -0.35795403 2.2601557
H -1.8416766 0.35223064 -1.0083618
