12

O -1.26424961 -1.06256880 1.11127542
C -0.88511451 -1.60170941 0.09989933
C 0.92576971 0.87935104 0.20323314
O 0.28802178 1.21418390 1.40454202
C -0.01668791 0.39470652 -0.89363200
O -0.22972455 -1.03834131 -0.90773514
H -1.05621435 -2.66106070 -0.13263669
H 1.71474002 0.12130528 0.33985305
H -0.31432380 0.48331740 1.62325406
H 1.40864578 1.79379852 -0.15819193
H 0.41145527 0.57443344 -1.88152031
H -0.98231801 0.90258393 -0.80834093
