11

C 0.791657 0.52823174 1.2826227
C -1.3431883 0.116420716 -1.7841544
N -0.15232375 0.44763067 0.3891175
C 1.4957142 -0.68764955 1.6264203
C -1.0587974 0.21083555 -0.33918685
O 1.2767941 -1.7811571 1.1401879
H 2.2863843 -0.5440915 2.392586
H -2.2096517 0.73568785 -2.0314596
H 1.008933 1.495347 1.7192295
H -1.6100092 -0.9227614 -1.9953743
H -0.48551175 0.40150604 -2.3999891
