11

C 0.94314926 -1.00530359 1.85878990
C -0.10195828 -0.04116917 1.59335498
N -0.48459369 0.11020225 0.35778848
C -0.81772200 0.05887902 -0.78000987
C -0.47842827 0.67312925 -2.07820092
O 1.49694400 -1.68335982 1.01400717
H -0.57549294 0.56150835 2.35865949
H 1.21888133 -1.08058618 2.93167496
H -0.08776171 -0.12067453 -2.72082204
H 0.27109896 1.46410150 -1.98489007
H -1.38411663 1.06327278 -2.55035246
