11

C 0.50819653 -0.9647398 1.5005515
C 0.16571315 -0.12510549 0.31960365
N 0.63498515 1.0351727 -0.0083916215
C -0.03233272 1.3601803 -1.181309
C -0.8785046 0.36038515 -1.4990052
O -0.7620165 -0.604248 -0.5426948
H -0.38558114 -1.2002183 2.0852866
H 1.2132337 -0.41727427 2.1300347
H 0.9672059 -1.9109136 1.1943265
H 0.15062645 2.2890742 -1.7029761
H -1.5815259 0.17768697 -2.2954266
