10

N 0.17780556 -0.6276571 -1.4935049
C -0.23337778 0.19804253 0.743793
O -1.2768646 -0.65874344 0.69880027
C 0.6005462 0.214094 -0.5235861
O 1.564051 0.95046616 -0.5971475
N 3.9468483e-05 0.9090807 1.7588402
H -0.624724 -1.2210115 -1.3653971
H 0.69631207 -0.66246974 -2.3574054
H 0.827606 1.4791499 1.5833942
H -1.7313939 -0.58095175 1.5522132
