10

N 0.7708857 0.5126599 -1.6329254
C 0.37712744 0.3901204 -0.40870342
O 0.8790591 1.3597282 0.2822996
C -0.51132804 -0.6806237 0.16937873
O -0.94903076 -1.5730276 -0.53061974
N -0.7348734 -0.5112034 1.4885224
H 0.51221895 -0.13647619 -2.3663332
H -1.3273684 -1.1686093 1.9711027
H 1.3117064 1.534215 -0.94467777
H -0.3283969 0.27321658 1.971956
