10

O 1.15039521 -1.02534564 -0.15912651
C 0.54176026 0.94521062 0.18955560
C -0.84421966 -0.62920181 0.34180653
N 0.14002730 -0.18982284 -0.69159514
C 0.42718124 -0.26037026 1.20445395
H -0.20533541 1.74465978 0.24137162
H -1.72604872 0.01658120 0.41077090
H -1.08838579 -1.68664789 0.23303907
H 1.54379653 1.30439613 -0.04990462
H 0.06082889 -0.21945926 -1.72037126
