11

O 0.41226268 -1.4355439 -0.14249572
C -1.500798 -0.027245557 0.57010555
C 0.24986187 -0.74222517 -1.3713408
C -0.076435044 -0.1804532 0.2206827
O -1.9716959 0.99738514 1.004986
C 0.84854716 0.8417445 0.37024105
O 2.1235883 0.7279021 0.16665433
H -2.0970626 -0.95011467 0.41200218
H -0.81309605 -0.9243835 -1.6845165
H 0.52241117 1.8249209 0.70988226
H 2.3024168 -0.13198657 -0.25620118
