12

O -1.2480675 0.44211847 -1.2532103
C 0.35687307 0.5775226 0.5336995
C 0.7679261 -0.8816216 0.31945813
O -0.5294315 -1.3520203 -0.14835648
C -1.0819863 0.27015564 0.013493209
O 0.9824299 1.52239 -0.27202323
H -0.7704929 -0.8209175 -1.1476732
H 0.40982205 0.8993935 1.5781884
H 1.5401186 -1.0135739 -0.44512883
H 0.48463848 1.5071667 -1.1080253
H 1.0237768 -1.4231545 1.2310976
H -1.9356066 0.2725405 0.6984803
