11

N -1.9936348 -0.51856774 -1.9165124
C -1.5752823 0.028558882 -0.99179816
C -0.99991226 0.6962405 0.19480124
O -0.31327888 -0.20500901 1.0275278
C 0.8036643 -0.82207984 0.43572265
C 1.853725 0.15603234 0.07874752
N 2.6549704 0.9414084 -0.19761522
H -1.8041459 1.116785 0.79993206
H -0.34694743 1.5132964 -0.14406501
H 1.1936176 -1.5195663 1.1783882
H 0.52722394 -1.3870986 -0.46512857
