9

N -0.5052527 -1.5244416 -0.6886887
C 0.055841256 -0.36479667 -0.3162406
N -0.44066417 0.35715777 0.63376033
C 0.26242623 1.527991 0.8903836
O -0.046727356 2.325148 1.7427216
H 0.9565917 -0.08472787 -0.87722784
H 1.158824 1.6992108 0.24508093
H -0.10760668 -2.0917435 -1.4179037
H -1.3334323 -1.843798 -0.2118856
