9

N -0.8064082 1.8447564 -0.12909734
C -0.10836499 0.8109205 -0.35012668
N -0.23626873 -0.3089783 0.4579239
C 0.47944415 -1.4711316 0.3006415
O 0.3649806 -2.4384425 1.0110439
H -0.596234 2.5718617 -0.8044837
H 0.6297237 0.68293655 -1.14761
H -0.90581805 -0.26401487 1.2166249
H 1.1789454 -1.4279075 -0.5549163
