9

N -0.58572451 0.22422400 0.57449908
C -0.90352349 1.52791807 0.21335141
N 0.72002841 -1.59179018 0.03546187
C 0.30422054 -0.33480587 -0.17764521
O -1.70800767 2.21114082 0.79946332
H -0.35759900 1.92432066 -0.67776708
H 0.77479167 0.17046296 -1.03073536
H 0.33166816 -2.11273422 0.80552990
H 1.42414578 -2.01873586 -0.54215776
