9

N 1.7343885 -0.31830198 -0.0069860094
C -1.6153224 0.22209555 -0.3748287
N -0.27488112 -0.0536981 -0.50984734
C 0.58963674 0.0032125006 0.50627637
O -2.429325 0.1836247 -1.2649432
H 0.93189853 -0.4104985 -1.0674039
H 0.36162305 0.26664314 1.5375499
H 2.5951092 -0.3885189 0.51278
H -1.8931277 0.49544165 0.6674029
