15

N -0.47617996 -2.2409995 1.2955209
C -0.31912455 -0.92631817 0.89996105
O -0.79885846 -0.00045872005 1.5463048
N 0.41762772 -0.7610188 -0.24215166
C 0.9354921 0.53853583 -0.6726306
C -0.13196844 1.5845505 -1.0128859
O -0.60409737 2.3039432 0.092304386
H -1.1892887 -2.3415298 2.0043795
H -0.48393255 -2.958608 0.58796453
H 0.96789855 -1.5580546 -0.5271094
H 1.5312514 0.33920595 -1.56918
H 1.6019356 0.96831346 0.08719071
H -0.9396079 1.0857952 -1.5730703
H 0.3201434 2.324475 -1.6834459
H -0.83129114 1.6421689 0.7668478
