15

N -1.6643481 0.31408453 -0.95501584
C 1.1644176 -0.9293293 0.4059265
O -0.012089652 1.8143994 -1.2425852
N 0.6110979 -0.43502092 -0.85579115
C -0.31893831 0.64824367 -0.56287736
C 0.21485282 -0.32804453 1.443767
O -0.18530369 0.88977313 0.82874453
H 0.678882 -0.0950987 2.4044068
H -2.1817677 1.1677387 -1.1384084
H 2.180838 -0.54744786 0.55116105
H -2.128352 -0.19005099 -0.20576721
H -0.6538592 -0.9825315 1.6113985
H 0.94890976 1.8405856 -1.3112321
H 1.1959904 -2.0234036 0.43969688
H 0.1496695 -1.1438977 -1.4134239
