11

N 0.6445945 1.9998888 0.084022105
C 0.051131986 -1.3727305 -1.0434096
C -0.020225752 1.5745236 1.1219689
C 0.072014906 -0.12292736 -0.23787983
C -0.41903716 0.21690571 0.9802806
O 0.7047402 0.9307098 -0.7781698
H -0.19607745 2.253623 1.94799
H -0.5200194 -2.1381168 -0.5157039
H -0.41045547 -1.1978337 -2.019899
H -0.9740451 -0.4005222 1.6709447
H 1.0673786 -1.7435201 -1.2101439
