11

N 0.7373608 1.7370806 2.3418784
C 0.25032663 1.3229842 1.3812927
C -0.346376 0.7811493 0.14623939
C 0.5798197 -0.11695159 -0.70036685
C -0.40169713 -1.2305305 -0.3125414
O -1.2411553 -0.30389804 0.4007825
H -0.8370167 1.6001422 -0.38957572
H 0.59201705 0.14506902 -1.7592187
H 1.5991995 -0.2222856 -0.3292867
H -0.9367369 -1.7134318 -1.1347597
H 0.004258588 -1.9993278 0.3555557
