11

N 0.32041807 1.85751173 0.93225496
C -0.71023088 1.18068555 1.35642962
C -0.85367273 -0.05752745 0.67195506
C 0.18836002 -0.05185947 -0.19676188
C 0.67945578 -1.01200110 -1.22061499
O 0.89089122 1.08271104 -0.04977376
H -1.32504996 1.59845000 2.14502397
H 0.72157312 -0.54028045 -2.20696643
H 1.68478609 -1.36513466 -0.97031499
H 0.00743297 -1.87023049 -1.26889597
H -1.60396346 -0.82232470 0.80766402
