11

N 1.31825482 -0.92936029 -0.20919016
C -0.22603452 0.50401089 0.09832423
N -0.90364565 1.66509536 0.30459777
N 1.06277992 0.49248304 -0.08669060
C -0.84784428 -0.82105159 0.09862095
C 0.06555027 -1.80394634 -0.09938305
H 1.98169824 -1.21249688 0.51325630
H -0.41589447 2.52388904 0.10381486
H -1.89558716 1.65819963 0.13548929
H 1.77233450 -1.10682516 -1.10541390
H -1.91161168 -0.96999770 0.24657431
