10

C 1.09177550 0.29375642 2.12243519
C 0.57909070 -0.10002128 1.11485977
C -0.06203532 -0.55911827 -0.10739612
C 0.82449899 -0.75312004 -1.32697615
N 0.24144339 0.03448362 -2.28721705
N -0.81317614 0.69384684 -1.83262718
N -1.04973705 0.40936011 -0.60807236
H -1.81521971 0.86360074 -0.13170336
H 1.56535362 0.64196691 3.01205824
H -0.56199398 -1.52475510 0.04463897
