9

O 1.11758696 -1.57306142 1.99563390
C -0.03588657 -0.83967097 0.21692589
N -1.00922771 -0.28941243 -0.29140909
N 0.87615792 -1.55061215 0.62553954
N 0.14073824 1.54428923 -1.20151286
C -0.94971873 1.00853927 -0.84616819
H -1.94812923 1.43835892 -0.95621867
H 1.85018905 -2.19733840 2.06099058
H -0.04170978 2.45890807 -1.60378086
