12

N -1.289805 0.9014155 -1.0738422
C 1.4943098 -0.4817935 1.035171
O -1.3188092 1.1389208 1.1899203
N 0.42037007 -0.008173925 0.24578202
C -0.6930212 0.6158823 0.12086466
C 1.3172472 -0.91946673 -0.40762404
H -0.7364366 1.0022068 1.9521468
H -0.85222787 0.4573869 -1.8710237
H -2.2963479 0.86840624 -1.0786039
H 1.1424413 -1.2281587 1.7574596
H 1.9759911 -0.48983058 -1.1616163
H 0.83628875 -1.8567952 -0.7086342
