12

N 0.09490986 0.44499573 0.30959755
C 1.5261729 0.35687545 0.569036
O -0.26904628 -1.6296297 1.0548041
N -1.6994625 -0.78888726 -0.51587856
C -0.63224703 -0.6461724 0.26471058
C 0.9351114 1.195968 -0.5843576
H 1.0357269 0.8153206 -1.6015161
H -2.0286038 -0.0005854439 -1.0509504
H -2.2103572 -1.6556526 -0.53311765
H 0.801668 2.2773404 -0.52484727
H 1.752504 1.0340078 1.4030586
H 0.6936237 -1.4035807 1.2094609
