12

N 0.34151536 -0.08830728 0.33579107
C 1.13372295 -0.77951109 1.28206875
O -1.47499933 1.13737141 0.99149990
N -0.89064471 1.17304857 -1.20830179
C -0.64503606 0.67568952 0.03962247
C 1.29308250 -1.01535014 -0.20908887
H -1.12018743 0.84058165 1.84288827
H 0.54625402 -1.55977702 1.78070550
H -1.86169375 1.26223366 -1.45999738
H 2.15681520 -0.58028527 -0.71080537
H -0.30441130 0.77906097 -1.93303460
H 0.82558253 -1.84475447 -0.75134808
