12

N -0.291741 -0.83488685 1.7665638
C 0.099234305 0.29330406 1.0846461
O 0.85196084 1.1320813 1.5309751
N -0.496425 0.3745941 -0.18573803
C 0.26924068 0.9361776 -1.2711167
C -0.06990886 -0.5130171 -1.2557875
H -1.1425822 -1.2902018 1.4757439
H -0.105173044 -0.8159756 2.7581146
H -0.27584243 1.6133981 -1.9226348
H 1.2972419 1.2150127 -1.0534452
H -0.86789006 -0.8969844 -1.8886873
H 0.73188484 -1.2135016 -1.0386341
