10

O 2.003847 1.1523579 0.4342596
C 0.959322 0.60189337 0.20576757
C 0.43354213 -0.8471601 0.2334042
C -0.9143004 -0.24520871 -0.23697689
N -0.2656713 1.0622064 -0.1976924
H 0.9251684 -1.5139412 -0.47752005
H 0.42507023 -1.2979515 1.2276124
H -1.2339448 -0.5527516 -1.2366627
H -1.7442384 -0.35217455 0.46751624
H -0.5887944 1.9927299 -0.41970775
