11

N 1.8487952 -0.110684246 -1.43701
C 0.6002981 -0.13193384 -0.86990833
N -0.54566544 -0.24949694 -1.4426444
N -1.5007389 -0.07198569 -0.4320556
C -0.83638376 0.09581559 0.65630996
N -1.2990714 0.19725314 1.9425226
O 0.51466614 0.07994223 0.47267953
H 2.5444038 -0.65196675 -0.9402569
H 1.8033085 -0.35169634 -2.4173925
H -0.82572037 0.8919853 2.5048277
H -2.3038914 0.3027675 1.962928
