9

O 1.6813506 0.9283739 0.6060688
C 0.5633466 0.30712676 0.19484922
N 0.4296149 -0.24806227 -0.9974151
N -0.80877525 -0.7274705 -0.9557858
N -1.4796228 -0.5289664 0.15669863
C -0.6251354 0.13770401 0.9256582
H 2.32236 0.8922388 -0.11539274
H -1.2070903 -1.2193261 -1.7389425
H -0.8760483 0.45838195 1.9242611
