9

O 0.64575857 1.8772897 0.08221069
C 0.29691887 0.59101504 0.0069074016
N -0.8018956 -1.2541238 -0.41967446
N 1.1148565 -0.40444738 0.35157168
N 0.5026705 -1.5341145 0.07118279
C -0.92448634 0.07865809 -0.41760442
H -1.8285263 0.5840766 -0.72263795
H 1.5572965 1.9137329 0.40550336
H -0.56259274 -1.8520863 0.64254093
