9

O -1.87788172 -0.83598802 -0.10883597
C -0.63426571 -0.33103976 -0.15323736
N 1.29947545 0.12121006 -1.00127533
N 0.15919618 -0.45804521 -1.24142291
N 1.23673822 0.61360224 0.22824140
C 0.03731197 0.36275211 0.82210266
H 2.03474209 1.10376312 0.60041726
H -2.04059847 -1.25625199 -0.96578928
H -0.21471795 0.67999760 1.81979934
