12

C -0.3389165 -0.4959461 0.5228655
C 0.35129848 0.74964863 0.33313274
C -0.9887028 -1.0790733 -0.7350453
O -0.5060914 1.7173203 0.2819916
N 1.6597495 1.0069219 0.32139808
H 0.19702204 -1.2405502 1.1166923
H -1.1768315 0.81342405 0.6999439
H 2.3283713 0.26144522 0.24830113
H -1.7899752 -1.7727631 -0.46124774
H -1.4403526 -0.2875183 -1.3467581
H -0.28364015 -1.631434 -1.3779347
H 1.9880692 1.9585248 0.39666066
