12

C 1.4003942 -0.2920243 0.8823368
C 0.33642888 -0.50490624 -0.18709159
C -0.59096915 0.69494957 -0.31984395
O -0.22275913 1.8358542 -0.114002086
N -1.8667006 0.39781025 -0.70002943
H 2.114384 -1.1208929 0.89025843
H 1.9425822 0.6394161 0.696898
H 0.95060015 -0.22091281 1.8777301
H -0.24600595 -1.4133902 0.013011503
H 0.8129055 -0.6469143 -1.1657344
H -2.140837 -0.5317406 -0.9633766
H -2.4900227 1.1627514 -0.91015655
