10

O -0.44519955 0.9413098 -0.32898587
C 1.4860997 0.35063297 0.52557814
C 0.76399565 1.4021939 0.06562805
N 0.72194463 -0.7919951 0.421088
O -2.5884466 -0.8012208 -0.8942067
C -1.56664 -1.2209234 -0.41164666
C -0.39696637 -0.38046452 -0.08569404
H 2.4892256 0.32473654 0.92107666
H -1.3995645 -2.285788 -0.16653384
H 0.93555164 2.4615188 -0.04630374
