10

O 0.073435046 -0.97347593 0.35973737
C -0.079379484 1.1140369 0.115657836
C -0.14878875 -0.82929814 -1.3418145
C 0.96642417 0.15243003 0.6725239
O -0.21602751 2.2994592 0.09851516
C -0.9072993 -0.07923815 -0.30416122
H 1.1039398 0.20963758 1.7560266
H -1.9515612 -0.21055083 -0.012247241
H -0.7500928 -1.7494403 -1.4775597
H 1.90935 0.06643969 0.13332175
