11

O -1.4271394 -0.35452843 -2.360693
C 0.48606625 -0.7268011 0.64700115
N -0.40431502 1.5275487 0.3941592
C -0.6826097 -0.77052987 -1.5620729
C 0.18276298 -1.2536999 -0.6915613
C 0.2331361 0.5082427 1.0932738
H 0.6739135 -2.1651094 -1.0272853
H 0.49029973 0.7593749 2.1195965
H -0.13366437 2.4582376 0.6797636
H 0.96018666 -1.4317158 1.3233976
H -0.37863654 1.4489806 -0.61557984
