9

O 1.2014844 -0.44321403 -1.8195815
C 0.40369985 -0.8164084 0.5350771
N -1.2354774 0.523417 1.7247167
N -0.4987222 0.16608483 0.7977985
N -0.38101697 0.8028869 -0.54110163
C 0.48747534 -0.17821823 -0.7385506
H -1.7234646 1.3627223 1.3974974
H 0.75688493 -1.6304958 1.1426812
H 0.98913646 0.21322538 -2.4985368
