9

O 0.87808343 -1.89586253 -0.76521584
C 0.35599563 -0.76862882 -0.31197414
N -0.57941200 -0.00972753 -0.86416400
N -0.35399496 0.81393532 0.35353531
N -0.93982544 1.85973892 0.65811591
C 0.60209173 -0.00459859 0.86791020
H 0.45549751 -2.11499581 -1.60806006
H -1.58707593 2.06141380 -0.11001911
H 1.16863996 0.05872511 1.77987180
