10

N 0.22372226 1.7664244 0.39274588
C -0.20331264 0.47942144 0.16456734
N -1.4018598 0.047381174 0.3611925
O -1.3365028 -1.3383747 0.10444637
C -0.07801508 -1.6979405 -0.26011118
O 0.28655288 -2.809495 -0.5202699
N 0.6437355 -0.5149325 -0.25473484
H 0.7517756 2.1740193 -0.36674702
H -0.5327223 2.3688712 0.68695074
H 1.646626 -0.47537452 -0.30804005
