10

N -0.1762918 0.22894375 -1.8739806
C 0.2612287 -0.2041745 1.4883399
N 0.34889117 1.4533247 0.06075627
O 0.25622994 -1.0719744 2.4071777
C 0.011105558 0.33136502 -0.5324237
O 0.5289825 1.077273 1.4406499
N -0.07423103 -0.73503965 0.3226601
H -0.26299372 1.1063783 -2.3608258
H -0.8095096 -0.4965764 -2.1738067
H -0.083411835 -1.68952 1.2214528
