11

C 1.7786189 -0.22502722 0.57339174
O 0.8824054 0.3015736 1.3459431
C -0.63196087 -0.46249026 -1.2987689
C -0.4179044 0.6749156 0.7729549
O -0.468358 0.7562305 -0.58674407
H -0.96424603 -0.18411991 -2.3010771
H -0.60418737 1.6714593 1.179598
H 2.6183958 -0.3799109 1.2998222
H 0.32007265 -0.9971779 -1.3501655
H -1.3966833 -1.0931906 -0.82453084
H -1.1161525 -0.06226206 1.189577
