11

C 1.2585026 0.19016759 0.88986176
O -0.12485367 0.5183113 0.99845845
C -0.6282534 -1.175064 -1.0050869
C -0.7889383 0.6865472 -0.13574767
O -1.6675141 -0.5175156 -1.3121629
H -0.25919148 1.1853465 -0.939636
H -0.77346873 -2.2800682 -1.2176121
H 1.3374099 -0.75812584 0.35032463
H 1.7896259 0.97754294 0.3386109
H -1.7807174 1.0500282 0.123050205
H 1.6373985 0.12282985 1.9099399
