11

C -1.3068707 0.10358011 -0.7827091
O 0.068940185 -0.014345658 -1.083826
C 0.82035005 -0.5308838 -0.019194447
C 1.0212287 0.49280044 1.0864661
O 1.2795292 0.20677997 2.2279449
H -1.7457871 -0.8745951 -0.5394281
H -1.485637 0.788747 0.059500717
H -1.7942629 0.50555277 -1.6722265
H 1.8095601 -0.77516747 -0.42421383
H 0.38700655 -1.4498636 0.40356466
H 0.94594264 1.5473951 0.7441216
