11

N -0.6975022 0.40480298 1.9833434
C 0.022747 -0.26389298 1.0167063
O 0.7419768 -1.2133305 1.2463772
N -0.12276741 0.28343675 -0.25134143
C 0.5250211 -0.22897889 -1.3644878
N 0.40492305 0.35494965 -2.4855285
H -0.73203355 -0.085284755 2.864457
H -1.5516849 0.87188727 1.7188336
H -0.62190324 1.1499858 -0.3931792
H 1.096868 -1.130974 -1.1401368
H 0.9343555 -0.14260116 -3.1950433
