11

N 1.11519540 -1.69705619 1.10548078
C 0.38154895 -0.71524738 0.77722538
O -0.39011478 -0.11225161 1.70548854
N 0.23757908 -0.12481906 -0.46176120
C -0.57722840 0.95054000 -0.78042282
N -0.59925804 1.37477911 -1.97696910
H -0.21084782 -0.60132466 2.52278881
H -1.14244928 1.34184767 0.06595846
H -1.23961747 2.15996367 -2.05763807
H 1.65427128 -2.06939800 0.32900672
H 0.77092122 -0.50703339 -1.22915702
