11

C 0.9379955 1.0887798 -0.76797473
N 0.08954333 0.13684513 -0.08552185
C 0.3788321 -1.0678217 0.42828935
N -0.69973975 -1.610701 0.96155196
C -1.6399974 -0.6622541 0.73351246
N -1.2156757 0.41229 0.10417215
H 0.5740392 1.2413026 -1.7863997
H 0.92325485 2.0405374 -0.23227276
H 1.957013 0.6979367 -0.795672
H 1.3660773 -1.5076841 0.3960841
H -2.6713426 -0.76923037 1.044231
