11

C -0.7922666 -0.0976077 0.08638074
N -0.95198065 -1.1692146 -0.80138487
C 0.2965597 1.5043124 1.3336463
N 0.32633615 0.39810643 0.3973379
C -0.07451028 -1.585435 -1.5521067
N 0.6285992 -2.0140495 -2.4409335
H 0.9214169 1.2492005 2.1952465
H 0.7374723 2.3850713 0.85701936
H -0.7147446 1.7570349 1.6892997
H 1.3723593 -2.6701276 -2.2593405
H -1.7492412 0.24270889 0.49483532
