15

N -1.8042485 -0.6450725 0.4506783
C 0.71196735 1.4062779 0.35887948
O 0.4626555 -0.8527929 0.6045605
N -0.66988397 -1.0637374 -1.5136938
C 1.4947518 0.12062354 0.5965544
C -0.58052796 -0.40371493 -0.24985002
O -0.3027092 0.9677746 -0.52942675
H 0.28134876 1.7957344 1.2916042
H -1.85085 -0.034163382 1.2566568
H 1.2843707 2.1986277 -0.13018504
H 2.0135953 0.08047218 1.5576538
H 2.2133958 -0.06287045 -0.21516845
H -0.8993712 -2.0404944 -1.3570192
H 0.2351324 -1.0336598 -1.9668326
H -2.5896268 -0.43300438 -0.15441175
