11

C -0.40849504 0.91743463 -1.1538674
C -0.07286576 -0.3324811 -0.3786302
O -0.05739531 -1.438653 -0.8761679
C 0.2781431 -0.18478245 1.0931317
O 0.65498143 -1.401906 1.6520972
H 0.5189989 1.335825 -1.5611763
H -0.8658812 1.6820104 -0.51665646
H -1.0685481 0.6777966 -1.9910607
H -0.6029427 0.23906581 1.603513
H 1.0819345 0.5627193 1.1861829
H 0.54207015 -2.0570292 0.9426344
