11

C 0.5084005 0.05103158 -0.00880482
C 0.19886364 1.0300127 -1.1124861
O -0.2398137 -1.4763993 1.6999627
C -0.6531927 -0.6926874 0.6276605
O 1.6315919 -0.1513975 0.39999273
H 0.7267639 -1.3794887 1.7299135
H -1.1242185 -1.3024068 -0.16186608
H -1.4061433 0.04696507 0.9445838
H 1.0801718 1.1864369 -1.7369747
H -0.07569632 1.9893252 -0.6574175
H -0.6467273 0.6986079 -1.7245637
