11

C -0.43839490 0.06946958 -1.83829632
N -0.05009135 -0.49804297 -2.78390845
C 0.42623581 -0.71911367 0.94743093
C -0.82739688 0.80350300 -0.70490924
N 0.21757647 0.64161130 0.36684450
H -0.01397240 1.30334644 1.10758928
H 1.09956094 0.97161767 -0.02858446
H 1.21056301 -0.70012270 1.71035186
H 0.69528498 -1.38736410 0.12744651
H -1.79849958 0.55657212 -0.28706600
H -0.52086544 -1.04147656 1.38310157
