12

O -1.4374814 1.3328986 0.2864773
C 0.4017779 -0.6815956 0.84472287
C -1.3586335 0.17468904 -0.2901635
O 0.091262855 0.654245 -1.0833764
C 1.1008021 -0.07161337 -0.3804498
O -0.9147536 -0.9350397 0.35942936
H 0.36232403 0.016729342 1.684599
H 1.9186213 0.6016758 -0.10608881
H 1.4753896 -0.84980017 -1.0528238
H -2.0802672 -0.12343589 -1.0587814
H 0.83301926 -1.6335125 1.1572726
H -0.3920613 1.5147593 -0.3608174
