12

O 0.95108437 -0.45097002 -0.56300169
C 0.97996932 -0.02082321 0.78888926
C -0.39498983 0.61080731 0.94911631
O -1.19346757 -0.20047349 0.10758422
C -0.38436474 -0.71562203 -0.92168464
O -0.66830453 -0.19461997 -2.15742131
H -0.44614694 0.74679232 -2.14775071
H -0.40004337 1.65540739 0.60768808
H 1.80843129 0.68066458 0.91611367
H -0.79960569 0.55699416 1.96301592
H -0.56318041 -1.79269848 -1.00729697
H 1.11061808 -0.87545852 1.46474800
