10

O 2.3656468 -0.3957406 0.27304325
C 1.1745788 -0.19568883 0.13518436
N 0.33062866 0.5747456 0.9223753
C -0.9740606 0.5512647 0.43570426
C -0.9771646 -0.22501968 -0.66087306
N 0.3251032 -0.68111646 -0.84853303
H 0.6622922 1.0644203 1.734986
H -1.7760266 1.0888946 0.9149339
H -1.78248 -0.4943508 -1.3262254
H 0.651482 -1.287409 -1.5805957
