10

O 1.18963575 -0.72924608 0.09853403
C -0.13844567 -0.72172048 -0.43519360
C 1.33475380 0.08348435 1.15393419
O 0.45460633 0.72478714 1.65785216
C -0.47078511 0.64512979 -0.99730724
O -1.75983181 0.78897638 -0.80087463
H -0.10590068 -1.40488186 -1.29100760
H -2.02205380 1.63717382 -1.18891175
H -0.86069849 -1.08701195 0.30516140
H 2.37871969 0.06330896 1.49781305
