10

O 0.7596117 1.2208152 0.042041957
C -0.48568258 0.8433183 -0.61487997
C 0.8766279 0.26943418 0.94658816
O 0.48122463 -1.271691 -0.34023
C -0.7005863 -0.5012672 0.06871353
O -1.6726851 -1.0280192 0.5231858
H 0.38011715 -2.121749 0.11432488
H -1.2646317 1.566211 -0.38256767
H -0.2904328 0.75103384 -1.6861837
H 1.9164371 0.2719137 1.329007
