10

C -0.39629012 -0.3663358 0.52900356
C 0.28708902 -1.0466601 -0.9610477
O -1.1966676 -0.36921573 -0.50039476
C -0.10196815 1.0542066 0.99752
H 0.2700142 -2.117244 -0.80139863
H -0.23278187 1.802125 0.20394422
H 0.8873003 1.125113 1.4567672
H -0.8392442 1.2581289 1.7851372
H 1.2523897 -0.5831964 -0.712222
H 0.07015872 -0.7569215 -1.9973091
