10

C -1.57405700 0.19074919 -0.84521158
C -0.22173156 0.61483270 -0.33215362
O 0.28219435 -0.41552827 0.29314908
C 1.58643640 -0.22356906 0.86580169
H -1.56451044 0.31885808 -1.93523423
H -1.88147626 -0.83003291 -0.58917612
H -2.31005718 0.91256638 -0.47051336
H 2.25858915 -0.95407441 0.40874910
H 1.50761770 -0.41099450 1.93994129
H 1.91699479 0.79719299 0.66464786
