11

C 0.26503515 1.1741247 -1.4393862
O 1.1967847 0.9531793 -0.5644831
C -1.1790694 -0.9020571 0.2617478
C 0.8404889 0.25817627 0.6777343
O -0.49599075 0.15487827 0.9264235
H 1.2900617 0.87662643 1.4564804
H 0.8373225 1.696293 -2.2464452
H -2.1146708 -1.0456342 0.8054693
H -0.5904112 -1.829941 0.29006714
H 1.3407099 -0.7165077 0.6045718
H -1.3902609 -0.61913824 -0.77217937
