11

C -0.93639701 -0.71299985 0.94192110
O 0.83382152 0.67340671 -1.22912600
C -0.37289115 0.69008842 -1.70451615
C 1.02029626 0.38989692 0.19843463
O -0.11072744 0.44610617 0.95759243
H -1.54323519 -0.72781831 0.03352793
H -1.58249539 -0.63510642 1.81832679
H -0.18378496 0.92056035 -2.78277322
H 1.50771169 -0.59360635 0.22545587
H -0.33115256 -1.62801410 1.01060200
H 1.69885431 1.17748625 0.53055479
