9

O -0.75400984 -0.7821578 -1.879335
C 0.3229371 1.1779608 0.42193308
N 1.1936649 0.35550123 -0.16139051
C -0.9785199 -0.83168274 -0.6997997
C -0.071219355 -0.2581548 0.34930813
O 0.112245105 2.2907178 0.79749084
H -0.05951594 -0.79469943 1.2984898
H -1.8930792 -1.3115649 -0.2928098
H 2.1274972 0.15407987 0.16611329
