9

O 1.7467256 0.5390715 -1.6398345
C 0.8904567 0.35456023 -0.8183447
N 0.2674023 -0.81385607 -0.4431673
C -0.6714281 -0.55588007 0.5563217
C -0.61699027 0.75912184 0.78326845
O 0.32412672 1.3352013 -0.037676066
H 0.48756036 -1.7011232 -0.8608003
H -1.2785826 -1.3270694 1.0014411
H -1.1492708 1.409974 1.4587914
