10

C 0.17082957 1.13024482 -0.16469721
C -0.58171217 0.37341355 -1.14652544
N -1.08203688 -0.96051153 -0.64540217
N -0.36647445 -1.43462174 0.23585444
C 0.59352144 -0.75799762 0.91410253
C 0.47897756 0.64914873 1.07146539
H -1.48389588 0.92723287 -1.43106335
H -0.00326432 0.21745478 -2.06753103
H 1.40772567 -1.35297918 1.31695204
H 0.86632957 1.20861554 1.91684485
