12

N -0.2831228 -1.4635091 0.5627757
C -0.21228795 -0.0133213345 0.25070223
C -1.513742 -0.5694274 0.7626637
N 0.79169077 1.4541318 -1.1686941
C 1.1729482 1.6117083 0.18481965
N 0.6660467 0.7938193 1.0376037
C 0.023499815 0.4142121 -1.1366496
H -0.44906762 0.0007540468 -2.0248659
H -0.12681131 -2.0933244 -0.22021833
H 0.20381032 -1.728932 1.408595
H 1.8761729 2.392295 0.45155543
H -2.149137 -0.79840636 -0.10828759
