12

N -0.17364501 -1.49725379 0.51653881
C -0.02505724 -0.03193168 0.32626333
C 1.34042924 1.41866915 -0.44519304
N 0.22278937 1.53420093 -1.30526315
C -0.56324457 0.59460388 -0.89067274
N 1.27981862 0.52960124 0.48163854
C -0.86341541 -0.51979854 1.47703813
H -0.62339547 -1.99950803 -0.24480569
H 0.65303916 -1.95325062 0.87933853
H 2.19956368 2.06105437 -0.60081372
H -1.53130180 0.39115557 -1.34307713
H -1.91558024 -0.52754223 1.14900837
