12

C 0.5852748 1.3137565 0.7737584
C -0.4871055 0.23289573 0.6018052
C -0.37443447 -0.5490493 -0.6012818
O -0.86773163 0.11549376 -1.5966439
N 0.044457138 -1.802595 -0.77612376
H 1.5386459 0.9289307 1.1719433
H 0.23464347 2.0873654 1.4643943
H -0.65421176 -0.34143868 1.5174445
H 0.8013262 1.8087109 -0.18150082
H -1.2561595 0.75542754 -0.6614696
H 0.54276323 -2.2859855 -0.050917108
H -0.10746781 -2.2635121 -1.6614088
