10

O 1.3149974 -0.9142525 0.48930198
C 0.40517664 0.1374413 0.3649716
C 0.006088802 0.44567186 -1.0774063
O -1.389806 0.1839357 -0.76021117
C -1.0828346 -0.20432135 0.50739014
O -1.801912 -0.6558317 1.3413198
H 1.3281355 -1.2008034 1.4106426
H 0.6864 1.0231371 0.95094323
H 0.3882757 -0.28292352 -1.796133
H 0.14547849 1.4679466 -1.4308188
