10

O 0.10603301 1.3805134 0.44028628
C 0.9829313 0.24105978 0.69725764
C -0.26367545 0.13468263 -0.01814421
O 2.1897233 0.16697939 0.064889975
C -1.5202725 -0.5102409 -0.2910533
O -0.5523693 -0.1791811 -1.3283033
H 1.0881416 0.017918136 1.7531284
H 2.0468833 0.23115046 -0.88817674
H -2.4245477 0.09169135 -0.32309216
H -1.6528479 -1.5745733 -0.10679252
