10

O 1.35065489 0.07499915 1.73120987
C 0.51289132 -0.63331719 0.91993689
C -0.27753610 0.00107275 -0.10471828
O -0.29713085 1.29051315 -0.58982747
C -0.65702646 0.19395204 -1.47884583
O -0.93004579 -0.43444089 1.02819661
H 0.79504123 -1.68000548 0.89628312
H 1.16528122 1.01689944 1.62482464
H 0.04891428 0.00300712 -2.28477352
H -1.71104382 0.16732000 -1.74228594
