11

O -1.98938501 -0.09006644 0.96118649
C -0.79638519 -0.03227744 0.39286963
N 1.39815688 0.58451050 0.01077781
C 0.30875468 0.83579311 0.93223421
O 1.58387490 -0.75514243 -1.84614427
C 0.90161929 -0.25422521 -0.81965494
N -0.43969738 -0.68442875 -0.65425288
H 0.56831195 0.55608678 1.95946657
H 0.01388569 1.89251516 0.93999786
H 0.98542286 -1.34714038 -2.32475266
H -2.53455840 -0.70562477 0.44827147
