9

O -1.55573172 -1.10362644 -1.03447382
C -1.32262073 -0.00148166 -0.61489902
N 0.74120451 -0.82183961 0.61831365
C -0.13996442 0.32916838 0.24731470
C 1.27118154 0.11860538 -0.17843302
O 2.24983346 0.50063191 -0.74230652
H -1.97530978 0.86770635 -0.83985535
H -0.30271497 1.12345381 0.97659058
H 1.03412224 -1.01261797 1.56774887
