9

O -0.93066955 -1.1283627 -1.9720618
C -0.4053356 -0.6205825 -1.0191319
N -0.89753556 0.32038638 -0.14272155
C 0.062758684 0.6269068 0.82037675
C 1.1295712 -0.123665735 0.52992564
O 0.87084085 -0.8918696 -0.5836774
H -1.8221608 0.70435923 -0.22937278
H -0.107180804 1.3415543 1.6098038
H 2.0997117 -0.22872603 0.9868593
