9

O -1.5000849 0.11078166 -0.638457
C -0.76287633 -0.8685122 -0.39018705
N 0.5672946 0.6514111 0.85916406
C 0.4557627 1.2381026 -0.28864333
C 0.43586797 -0.7060829 0.31808394
O 0.6419856 1.8914764 -1.214812
H 1.2391797 -1.4054161 0.49933144
H -0.05577492 0.96556085 1.6040694
H -1.0213546 -1.8773214 -0.74854946
