12

O -0.6645429 1.4896258 -0.8130008
C 0.18583195 0.41637447 -1.1333405
C 0.4802669 -0.40256527 0.12173492
O 1.0365841 0.4536402 1.0844055
C -0.7903459 -1.015185 0.66899616
O -1.1313293 -0.8229841 1.810307
H -0.2562654 1.9152852 -0.044622075
H 1.139474 0.75561464 -1.5619584
H -0.32445288 -0.19680874 -1.8845311
H 1.1670043 -1.2290866 -0.13035639
H 0.5317764 0.2952754 1.9005698
H -1.3740015 -1.6591859 -0.018204277
