12

O -1.5021095 0.27044797 -0.12725428
C 0.5227323 0.83425516 0.97106594
C -0.3072341 0.054979786 -0.02580606
O -0.56515163 -1.6017743 -1.753695
C 0.35045713 -0.9946845 -0.89571685
O -0.24653904 1.7550267 1.6812584
H 0.82510114 -1.737849 -0.23548096
H 1.0049354 0.114213005 1.6516471
H 1.1622169 -0.5133207 -1.4640399
H -1.4237406 -1.1864597 -1.5763826
H 1.3333174 1.3397716 0.42196462
H -1.1539856 1.665394 1.3524398
