9

N 0.23170453 -1.5483246 1.4045494
C -0.03782299 -0.96346384 0.31654468
N 0.13693093 0.4144185 0.20143935
C -0.101651736 1.1669738 -0.8408932
O 0.17728047 2.371702 -0.5332848
H -0.4731195 0.8658848 -1.8208016
H 0.4355827 1.689877 0.5443943
H 0.045165665 -2.5454016 1.3199942
H -0.41407004 -1.451666 -0.5919425
