9

N -0.01047243 0.49879649 -0.29013125
C -0.83478239 0.53085883 0.67278013
N 1.56445090 -0.77529500 -1.40198654
C 0.72398936 -0.68374685 -0.45710717
O -1.58179294 1.60392860 0.92861748
H -1.34654650 2.27282939 0.26440581
H 0.52154602 -1.49112180 0.26861791
H -1.04445042 -0.26578286 1.39232051
H 2.00805845 -1.69046671 -1.37751667
