10

O 1.4484463 -1.2697043 0.8712248
C 0.546862 -0.45464253 0.3225326
C 0.8838547 0.8936564 0.08451894
N 0.005010943 1.7135531 -0.4566976
N -1.2074168 1.2587107 -0.7787997
C -1.4663581 -0.014182686 -0.53332394
N -0.639525 -0.9212003 0.012116591
H 1.0304948 -2.1425104 0.9516354
H 1.8590109 1.2977123 0.33172563
H -2.46038 -0.36139217 -0.8049328
