10

O -0.38861018 1.5899471 0.90612626
C 0.6527973 -1.2631413 0.44783425
C -0.22580819 0.43468288 0.23851345
N 1.1052006 -0.1234605 -0.28506798
N 0.48355985 -0.15704031 -1.6439838
C -0.59015524 0.4005637 -1.2254939
N -0.4173905 -0.8189013 1.0051088
H -0.29346856 1.4220027 1.8550972
H 1.1073762 -2.2474377 0.5049336
H -1.4335014 0.7627848 -1.8030678
