13

C -0.49966326 -0.48443678 -0.086735845
C -0.3329139 -0.070614554 -1.5472261
N 0.010102776 0.38657296 2.1313584
O 0.96987116 -0.29400805 -2.0176046
C 0.39583382 0.3250108 0.83245975
O 1.4117535 0.88773465 0.44378307
H -0.74376065 -0.17556481 2.4879045
H -0.9997693 -0.67210835 -2.1732697
H 0.6366066 0.829223 2.7836344
H -0.22111642 -1.5398896 0.014704298
H -1.5469035 -0.38342962 0.22347707
H 1.5525372 0.20951894 -1.4316852
H -0.6325784 0.9819914 -1.6608006
