13

C 0.18247843 0.11253619 -0.21865277
C 0.06981027 0.51688504 -1.6513413
N 1.2901425 -0.327316 0.22578879
O -1.2643199 -1.0248265 1.346963
C -0.9812377 0.20840211 0.74019784
O 1.4269925 -0.7703048 1.5464629
H -1.8700941 0.5216217 0.18443245
H -0.6628276 -0.12455112 -2.1560204
H 2.2537057 -0.80584335 0.6117219
H -0.74540925 0.994009 1.4771152
H 1.0305407 0.43135354 -2.1636884
H -0.43686324 -1.2809018 1.7857413
H -0.2929186 1.5489359 -1.7287204
