13

C 0.07159026 -0.07856717 -1.2753603
C -0.05301302 1.1743003 0.95803577
N 1.5219873 -0.72566 0.67483884
O 0.29223043 -1.6866704 0.53541726
C 0.525352 0.027423155 0.17526087
O -1.3181775 -0.26595643 -1.412068
H -1.5050176 -1.152796 -1.0772126
H -0.93309397 1.6035678 0.47406465
H 0.7373236 1.9305611 1.0384407
H -0.28919923 0.8559326 1.9784889
H 0.6624918 -0.8639553 -1.7626461
H -0.015424007 -1.7004378 1.4498056
H 0.30295026 0.8822578 -1.7570659
