12

N -0.4527857 -0.45306906 1.9157829
C -0.13981393 -0.13504258 0.5975136
C -0.9274988 0.72247195 -0.17327556
N -0.5975517 1.0830891 -1.4112362
C 0.5369979 0.5806978 -1.8931262
N 1.3650781 -0.24663888 -1.2582165
C 1.0215659 -0.5983298 -0.023662155
H -1.4278364 -0.38194907 2.1622517
H -0.035213076 -1.3044463 2.2630095
H -1.8543218 1.1331557 0.22476515
H 0.81417525 0.87482226 -2.9017406
H 1.6972045 -1.2747611 0.49793425
