11

N 0.47887245 -0.6327316 1.6944364
C -1.0708169 -0.15689774 0.09996541
C 0.1787501 0.11603753 -0.4170028
N 0.61010855 0.5403195 -1.6774365
C -0.8083007 -0.6239645 1.4084425
N 1.064815 -0.17905617 0.56522787
H 1.1993551 1.3648413 -1.6468674
H -0.17319977 0.71139294 -2.2942116
H -1.5236601 -0.94711214 2.153183
H -2.024896 -0.030924534 -0.3894558
H 2.0689716 -0.1619046 0.50371855
