11

N -0.3577591 1.3348256 1.3444173
C 0.98072886 -0.31418294 0.0038921963
C 0.57211334 -1.1722229 -1.0051442
N -1.1830673 0.1101241 -0.4985817
C -0.16786666 0.42261797 0.32428032
N -0.6965393 -0.9441984 -1.3753875
H -1.1364479 1.9560851 1.1787279
H -1.591655 -1.0498294 -0.5343436
H 0.47570527 1.8346312 1.616743
H 1.1433085 -1.9419578 -1.5075859
H 1.9614792 -0.23589286 0.45298207
