11

N 0.90952098 -1.34989656 0.92267759
C -1.00362952 -0.38394061 0.16302178
C -0.40658437 -1.42891225 0.90514694
N 1.17827495 -0.25402670 0.18031480
C 0.06605061 0.35552311 -0.29757058
N 0.15549305 1.46977183 -1.13734928
H -2.05311155 -0.19377197 -0.00458684
H -0.90099713 -2.23305035 1.43403239
H 2.13537562 -0.01778438 -0.02107021
H 0.68147233 2.23783601 -0.73559640
H -0.76186487 1.79825164 -1.40902008
