12

O -0.3424127 -1.5879225 1.137844
C -0.5731924 0.58067936 -0.9975071
C 0.2113687 -0.6704454 1.6965224
O 0.75266635 0.39536822 1.1194154
C 0.7904158 0.46594563 -0.3253442
O -1.15573 -0.64355195 -1.3476927
H -1.2251879 1.1936198 -0.35316214
H 1.3224974 -0.40725762 -0.71450865
H 1.3832412 1.3670896 -0.49573317
H -0.42374986 1.1341698 -1.9312733
H 0.35519198 -0.60423255 2.7816591
H -1.0951085 -1.2234625 -0.5702198
