11

N -0.90257861 -0.77763861 0.33724976
C 0.53707635 -0.65246796 0.67117696
C 1.02039243 0.45085731 -0.05035149
N 2.22320859 0.84799237 -0.23384698
C -1.16943940 0.49699986 -0.40309848
N -0.14341071 1.17945052 -0.61009849
H -1.14762833 -1.57318869 -0.26785417
H -1.50877207 -0.83269511 1.15915099
H 1.06585283 -1.58230675 0.82073039
H 2.22335324 1.72346603 -0.75071344
H -2.19805421 0.71953111 -0.67234514
