11

N -0.848786 -0.054590892 0.8998275
C 0.6005808 -0.35949665 0.8214066
C -1.1005476 0.63242775 -0.40732777
N -0.11124337 0.63339454 -1.1706095
C 0.9947695 -0.090850264 -0.4991875
N 2.091601 -0.36397865 -1.0996166
H -1.0929505 0.5710928 1.6711426
H -2.0816007 1.0704954 -0.5676209
H 2.0805779 0.030573523 -2.0365329
H -1.4685673 -0.8729736 0.97208357
H 0.9361663 -1.1960938 1.4164348
