11

N 0.28463903 1.1591829 -0.70710796
C 0.73778105 1.2463275 0.5576988
C -0.12746187 -0.65192163 0.46629912
N -1.0020478 -1.6236874 0.5957246
C -0.20925155 -0.1838296 -0.9062957
N 0.55540586 0.1771235 1.3154004
H 1.1824923 2.1622827 0.93287826
H -0.9829594 -2.2476559 1.3986387
H 0.42229667 -0.74139076 -1.6061815
H -1.2905251 -1.1570635 -0.63511276
H 0.4296307 1.8606322 -1.411942
