11

O 1.3227844 1.4113019 -1.6503708
C -1.0853153 -0.62184566 -0.21651661
C 1.1065749 0.42778337 0.7020974
C -0.3311249 0.6109729 0.14396882
C 0.8882499 0.96210665 -0.63676184
N -0.5499139 -1.7688936 -0.11888804
H -1.1890256 -2.4940147 -0.4407813
H 1.4426873 1.0899569 1.497586
H -2.105309 -0.4463285 -0.5847853
H -0.9241514 1.4379557 0.5256914
H 1.4245436 -0.6089948 0.77876025
