10

N 0.22596914 1.7679052 0.3923987
C -0.20117989 0.479879 0.1639306
N -1.4023498 0.051211596 0.3593252
O -1.3366015 -1.338766 0.103947766
C -0.08032996 -1.6985817 -0.25765225
O 0.28279048 -2.8110874 -0.51973164
N 0.64412314 -0.5162448 -0.2500581
H 0.7553822 2.1755974 -0.36635017
H -0.5345128 2.3698604 0.6783324
H 1.6467091 -0.47977322 -0.30414245
