10

N 0.7261394 0.36657354 -1.6954504
C -0.48622185 -0.18973488 1.5408688
N 0.43971097 -1.156109 -0.25242102
O 0.2540495 -1.2625302 1.1534281
C 0.06710007 0.07254123 -0.594569
O -0.8773752 0.005355411 2.6548746
N -0.6730751 0.62335855 0.40603152
H -0.96870255 1.5807518 0.4943831
H 1.2271965 -0.9142073 -1.2517432
H 0.2911781 0.87400085 -2.4554026
