10

N 1.1726562 -0.03089854 1.4700239
C 0.3109428 -0.18545485 0.48542893
N 0.22611575 -0.506119 -0.8350686
O -1.5117415 0.7817487 -0.29177037
C -0.89406526 0.18255453 -1.3444605
O -1.2497443 0.2560239 -2.4835622
N -0.81981725 0.37456307 0.8884573
H 1.8279322 -0.76483107 1.7071028
H 0.9702258 -0.80655766 -1.4416324
H -0.03250477 0.69897085 1.8454814
