11

O -2.2094254 -0.5575435 -0.110710055
C -0.3958391 0.18033408 -1.4984018
N -0.026419759 -0.3893181 0.86909825
C -0.8419727 -0.69889206 -0.32702067
O 1.8589181 1.0034521 1.0373095
C 0.82954574 0.4236545 0.42598984
N 0.66021174 0.76305544 -0.95162815
H -2.4308424 -1.1214615 0.63991296
H 1.8564763 0.70545477 1.957818
H -0.5685091 -1.7303042 -0.62284267
H 1.2678565 1.4215684 -1.4195254
