11

O -2.09272816 -0.59430241 -0.68699743
C -0.71034535 -0.69527222 -0.56242035
N 0.84916399 0.83060744 -0.71605942
C 0.68314140 0.41451347 0.64077536
O 1.50849751 0.97801634 1.51869121
C -0.01792354 0.25986828 -1.53836411
N -0.22778783 -0.44003776 0.81368166
H 1.28807380 0.62659181 2.39279558
H 1.53107135 1.52746753 -0.98286962
H -0.33716241 -1.70188015 -0.83367479
H -2.47400058 -1.20557237 -0.04555820
