11

C 0.6041968 0.325077 0.35125953
C -0.028439326 0.5506831 -1.0336378
N -1.9431758 -0.06449878 0.6852228
C -0.848174 0.25415924 0.15523209
N 1.4123583 -0.843145 0.5882152
H 1.025272 -1.6397055 0.091828994
H -0.0053024576 1.5610507 -1.4343382
H -2.691582 -0.0538304 -0.014851136
H 1.3763051 -1.0789722 1.576156
H 1.0084436 1.2217323 0.81619793
H 0.09009738 -0.23255043 -1.7812854
