11

C -0.08191456 -0.32672492 1.2307789
C 2.311827 -0.05199058 -1.2380364
N -1.0857426 0.08987146 -0.95679903
C 0.00767208 0.4364795 -0.08559924
N 1.2979918 0.19040656 -0.69892913
H -1.0538265 -0.9005635 -1.1795027
H -0.047815844 1.5130658 0.103005335
H -0.01754066 -1.4051881 1.0497154
H -1.023103 0.59902096 -1.8323504
H 0.7330708 -0.03900151 1.9002116
H -1.0406185 -0.10537578 1.7075058
