11

C -0.39339238 0.1050641 -0.21574086
C -0.0037565385 -1.078136 0.6350457
N 1.4607401 -0.005133329 -1.272361
C 0.5156129 0.17138769 -1.9766667
N -0.36239895 1.3309028 0.39211604
H 0.08139729 -1.9746772 0.018643036
H -0.647588 2.0991852 -0.2021931
H 0.5026369 1.5425758 0.8745745
H -1.3073388 -0.05166824 -0.77846223
H -0.7945772 -1.2256001 1.3804773
H 0.94866467 -0.9139006 1.1445675
