10

C -0.93318576 0.3796041 2.366138
C -0.47319958 0.21020576 1.2671746
C 0.067434594 0.006904398 -0.03367809
C 1.340909 0.120385766 -0.5508772
N 1.3052795 -0.19721593 -1.8680655
N 0.08760223 -0.5004343 -2.200392
N -0.6650872 -0.3818747 -1.1105472
H -1.3324466 0.5327679 3.3465207
H 2.255275 0.4059332 -0.055425864
H -1.6525812 -0.5762761 -1.1608477
