11

N 0.96699893 0.4649231 -2.1409018
C 0.5781014 0.24241312 -0.9584585
C -0.8003044 -0.118992135 -0.64283097
C -1.1515608 -0.34153736 0.6255042
C -0.12465125 -0.2106593 1.6410323
N 1.0960722 0.1024913 1.4143776
O 1.4653026 0.33363017 0.10105583
H 1.9582272 0.7030396 -2.1633668
H -1.4810977 -0.18729527 -1.4835978
H -2.1628785 -0.6107611 0.9150835
H -0.34420964 -0.37725222 2.692102
