11

N 1.6099414 -0.08695071 -1.0631613
C 0.30798978 0.6590049 0.90301
C 0.5846125 -0.47285926 -0.032728057
C -1.0089706 0.9191709 0.8661897
C -1.7256572 0.028980633 -0.082137346
N -0.74362916 -0.73829836 -0.5473232
O 1.2855163 -0.3538647 -2.1808853
H 1.0098232 -1.3464985 0.47867775
H 1.0874478 1.1414189 1.4848306
H -1.5157021 1.6794237 1.4463274
H -0.89137167 -1.4295279 -1.2728003
