11

N -1.2647364 1.3513288 0.31484333
C -0.06375264 1.0150614 -0.37407276
C -0.24552512 -1.5472623 -0.10236016
C 0.993373 -1.0627202 0.35949358
C 1.0446693 0.30984297 0.18796635
N -0.923146 -0.86780566 -0.8944696
O -1.5234631 0.6759429 1.2950988
H -1.9409189 -0.85547775 -0.82216626
H 1.9704846 0.8490411 0.37979317
H 0.15418153 1.8055679 -1.0904821
H 1.798834 -1.673519 0.74635565
