10

N 0.6074516 -0.17372726 3.3032234
C 0.35273412 -0.029763356 2.1859226
C 0.04129276 0.13450955 0.7976404
N -0.65560454 1.121488 0.2842195
C -0.701416 0.864095 -1.0528761
C -0.025003362 -0.29151013 -1.3502287
N 0.4504368 -0.7537306 -0.15534511
H -1.2219386 1.5264452 -1.732439
H 0.15498903 -0.81097794 -2.2780764
H 0.9970582 -1.5868285 -0.0020407569
