9

N 1.3175138 -0.6096294 1.0393703
C 0.18175581 0.64105105 2.1503146
O -1.9459602 0.6700432 -0.21141607
C -0.8375587 0.18173926 -0.28207925
C 1.7279972 0.5392607 1.3602202
C 0.02946088 0.12106965 0.9270329
N -0.26907846 -0.34383202 -1.3914407
H 0.62309366 -0.8109463 -1.3606441
H -0.82722425 -0.38875592 -2.231358
