10

N 0.53574115 -0.50250196 -1.0109048
C -0.2727852 -1.5170573 -1.4045929
C -1.106182 -0.4194046 0.39017108
O -1.2920983 -1.4400638 -0.52282387
C 0.046656787 0.19914721 0.09403966
N 0.70748365 1.3223988 0.59125376
H -1.8557074 -0.27590916 1.1510706
H 1.3716162 -0.25278255 -1.5172802
H 0.20534018 1.7560643 1.3549678
H 1.659935 1.1301092 0.87409884
