10

N -0.05578583 -0.86422115 1.35972881
C -0.04472933 -0.08227599 0.20471899
C -0.94200413 0.70929503 -0.40162306
O -0.32099847 1.31666321 -1.47648385
C 0.96501765 0.92521021 -1.60046334
N 1.11522436 0.06994125 -0.55931942
H -1.97831463 0.94017998 -0.21696114
H 0.20745194 -1.82660170 1.19040737
H -0.94796759 -0.83283598 1.83564859
H 2.00210619 -0.35535497 -0.33565299
