11

O -0.277692 1.6400464 2.165111
C -0.21389873 0.86840606 1.2323197
C 0.7514683 1.0181171 0.13569649
C 0.7818913 0.13638486 -0.87174904
N -0.104029246 -0.91994184 -0.8761935
C -0.99479914 -1.043236 0.15219654
N -1.0882043 -0.24611135 1.1515521
H 1.4354258 1.8575226 0.16546825
H 1.4669945 0.18697447 -1.7109593
H -0.09761469 -1.5959697 -1.621478
H -1.6595418 -1.9021927 0.078035414
