9

O 2.5035055 -0.30611995 -0.051809706
C 1.4266981 0.2195052 -0.13496633
C 0.21196964 -0.23335798 0.6657529
C -1.0243019 -0.094789565 -0.10381398
C -2.0116327 0.038352974 -0.77669156
H 1.2500416 1.0942323 -0.7945684
H 0.16153285 0.39597142 1.5645456
H 0.37613958 -1.2634921 0.9989782
H -2.8939526 0.14969777 -1.3674266
