10

C -0.850063 0.19681506 -0.8471008
O 1.0695524 -1.2760332 -0.20283946
C -0.015266835 -0.50913084 0.23277523
O -0.5593276 1.4447073 -0.3873325
C 0.35027984 0.92028964 0.6255882
O -1.5229679 -0.11139622 -1.7800431
H 0.05979787 1.2559249 1.6216273
H 0.7284331 -2.072711 -0.62885684
H -0.64532447 -1.0274522 0.9691917
H 1.3848867 1.1789865 0.39699036
