9

O 0.7016809 0.6378537 -1.8110265
C 1.0357952 -0.60866797 -0.87512964
N -1.3924451 0.36532053 1.3383898
N -0.8800634 0.8152821 0.11703089
N -0.6322586 -0.40617928 1.9400707
C 0.114349976 0.21587236 -0.35791525
H -1.1365885 -0.64769757 2.7971742
H 0.099656194 0.31359598 -2.4980237
H 2.0898736 -0.68537986 -0.6505705
