9

O 0.8441622 1.7574636 1.7145091
C 0.21210937 -0.15709025 0.44131428
N -1.3469003 -0.8100152 -1.0750948
N -0.8200388 -1.457336 -1.9957888
N -0.6277007 -1.0029885 0.11124971
C 1.1051089 0.66696036 0.93568254
H 2.1621573 0.53839976 0.72864306
H -1.4354357 -1.3048627 -2.8060157
H -0.093462385 1.7694689 1.9455006
