9

O -1.9659855 0.42567825 0.077850625
C -0.6564141 0.13349535 0.03126959
N -0.11102678 -0.8962958 0.65477794
N 1.1731043 -0.78356564 0.3292902
N 1.4986877 0.22736757 -0.44788283
C 0.3391966 0.84541506 -0.66214556
H -2.397914 -0.2408921 0.62838924
H 1.8593458 -1.4420725 0.66155785
H 0.26100618 1.73087 -1.2731069
