9

O -2.29657326 0.86535702 -0.20369999
C -0.54336902 -0.32012762 0.87998159
C -1.15840655 0.48495023 -0.18791999
N 0.67900833 -0.70528266 0.85937974
C 1.39939447 -0.30605058 -0.26447908
N 0.98934215 0.38929881 -1.25810524
O -0.32991269 0.80345697 -1.22904388
H -1.17597631 -0.59395895 1.72064801
H 2.43649299 -0.61764326 -0.31676129
