11

C -1.2215359 -0.93411845 -0.13450365
C 2.5310352 2.178293 0.41332057
C -0.36026824 0.26165217 0.24126965
O 1.5291444 -0.7777654 -0.8595385
C 1.0603839 0.13239656 -0.24050766
N 1.8702877 1.2464749 0.112124674
H -0.7586892 1.1953604 -0.1747394
H -0.8255258 -1.8573643 0.29816273
H -2.2404332 -0.7884457 0.23539364
H -1.2626708 -1.0658438 -1.2191612
H -0.32172745 0.40936098 1.3281792
