10

N 1.31354112 0.04572495 0.93354017
C 0.19453152 0.03878514 0.10719408
N -1.54664556 0.45650464 -1.20856716
N -0.22636127 -1.06527354 -0.55130314
N -1.28687567 -0.79648578 -1.34323246
C -0.67248023 1.01561245 -0.32623792
H -0.71645952 2.06141423 -0.06502697
H 1.43534562 0.93623453 1.39544944
H 0.17264204 -1.99035115 -0.55631984
H 1.33276173 -0.70216551 1.61450412
