10

N -0.6395404 -0.5964631 -0.851588
C 0.21279173 0.065314434 -0.035931617
N 1.5744647 0.17866352 -0.2968477
N -1.9153588 -0.50060564 -0.41893518
N -1.8951222 0.21354845 0.6511931
C -0.61479294 0.58190924 0.93463403
H 2.0307226 -0.6973705 -0.5155132
H 2.0644562 0.6449854 0.4539226
H -0.3720945 1.183975 1.7963074
H -0.44552633 -1.0739567 -1.7172414
