11

O 0.58429044 -0.14872397 1.7062886
C -0.25490773 -0.24259531 0.59204644
C 0.26448947 -0.86884505 -0.7136005
C -0.5063225 0.99394 -0.28627607
O -0.2305626 0.24123074 -1.4769468
H -1.5135072 1.4262445 -0.29512426
H -0.17090857 -1.8203175 -1.0395986
H 1.3621372 -0.9424726 -0.7499332
H -1.1756697 -0.70731497 0.95211643
H 0.22966966 1.7969512 -0.12556201
H 1.4112915 0.27190292 1.4365898
