11

O 0.76071614 0.98075205 0.86300886
C -1.1283933 -0.21200068 0.15106073
C 1.0470802 -0.34209105 -0.6121752
C 0.01632443 0.6760098 -0.3248547
O -0.3960433 -1.0424275 0.99923235
H 0.40278777 0.16403118 1.4146006
H 0.82857823 -1.3911176 -0.755646
H -0.108246095 1.5523548 -0.9622389
H -1.9272577 0.34927815 0.66472906
H 2.0713937 0.0031243481 -0.72444916
H -1.5669403 -0.7379135 -0.713268
