11

N 1.68268537 -0.37028701 -1.60471029
C 0.72570129 -0.32438432 -0.64161784
N -0.08094835 0.66064324 -0.37241521
N -1.88174652 0.77614614 1.18181577
C -0.83824857 0.09360279 0.62198921
N -0.52595012 -1.13129268 0.96279520
O 0.54435423 -1.42089189 0.08257398
H 1.93163698 0.53605419 -1.96978722
H 2.44030200 -1.01652520 -1.45001546
H -1.79062743 1.77873085 1.12479243
H -2.20715852 0.41820386 2.06457991
