11

N 0.22631311 -0.92583144 -2.201382
C 0.12370926 -0.60340315 -0.92395914
N -0.82906526 -0.49028635 0.056633722
N 1.2922544 -0.035441894 -0.6193164
C -0.25022495 0.38037914 0.8438283
N -0.8138096 0.9326688 1.9346563
O 0.98199207 0.7956851 0.5181623
H -1.653081 0.4876851 2.2612689
H -0.27828655 -1.7243347 -2.5663311
H -0.21769263 1.3943124 2.5997295
H 1.4178911 -0.21143292 -1.9032905
