10

O -1.0399531 -0.6306506 -1.1347351
C 1.25978 0.5329237 -0.8746871
C 0.0035687115 -0.659658 -0.47218677
O -1.5526998 0.49572328 1.062404
C -0.24576522 0.21820721 1.0346638
C 0.7032347 0.8964203 0.19516064
H 1.9338205 0.67617786 -1.6972345
H 0.1648542 -0.2098286 1.9493576
H -1.8720952 0.18795039 0.16743404
H 0.64525527 -1.5072654 -0.23017666
