10

O 2.13305368 0.54094546 -1.41258998
C -1.85021078 0.16963086 0.64212991
C -0.45690222 -0.20287465 0.98727445
O -2.72251330 0.29555186 1.46836368
C 0.45041689 -0.31788868 0.04382117
C 1.30702546 -0.42753679 -0.94112259
H -0.24640208 -0.37643854 2.04140626
H 1.99448998 1.35586744 -0.91079651
H -2.04015804 0.32644540 -0.43876129
H 1.43120059 -1.36370257 -1.47972529
