10

C -0.60021088 1.06272932 -0.06051839
C 0.18302747 -0.99144446 -0.83126108
N -0.74249319 -0.01453839 -0.99665106
N -1.84554665 0.33118660 -0.33111441
C 0.84537576 -0.67657097 0.38817991
C 0.31237145 0.46969506 0.92705546
H -0.51933024 2.09105009 -0.40785723
H 0.17117605 -1.90531642 -1.40206652
H 1.59319040 -1.30821414 0.85466062
H 0.60243970 0.94142352 1.85957289
