10

C -0.22192153 0.9748561 -0.36862463
C -0.62749386 -0.039100036 -1.2349577
N -0.45649993 -1.3346503 -0.99016005
N 0.13048106 -1.7117848 0.13753831
C 0.53988653 -0.789504 1.0046151
C 0.38967073 0.58242434 0.8026266
H -0.38616183 2.0176673 -0.61584413
H -1.1183633 0.1866425 -2.1798906
H 1.0096486 -1.1820027 1.902663
H 0.7407534 1.2954518 1.5420343
