10

N 0.21073717 0.5819224 -0.77386314
C 0.15943389 1.3400443 0.57643706
C 1.2588159 -0.30024132 -1.0323157
N -1.4638062 -0.6876822 0.6441399
C -0.5669707 0.2710014 0.39238712
O 1.1589775 -1.501621 -0.9483564
H -1.2382506 -1.5817473 0.22734812
H -1.8437134 -0.7280947 1.5773463
H 0.15668917 2.4000857 0.74269116
H 2.1680875 0.2063327 -1.4058148
