10

N 0.6548075 1.4123088 0.84931046
C 0.3523616 -1.2699482 -0.8355422
C -0.38482726 0.67878026 0.5109867
N -0.68903863 -0.38154733 -0.971767
C -1.4053817 -0.03307954 0.25527227
O 1.1727564 -1.3490452 0.07043068
H 0.44112653 -1.912216 -1.7294935
H 0.73923725 2.3152099 0.39831674
H -2.3917437 -0.32213482 0.5863663
H 1.5107019 0.86167234 0.86611944
