10

N -0.2474893 -1.3048168 -0.7998444
C -0.056343373 -0.03308483 -0.5456833
C 1.0617589 0.59553975 0.6590213
N -0.32988685 1.1760079 1.0441173
C -1.0224848 0.8739035 0.009335987
O 1.6297776 -0.22789589 1.3596168
H -1.1496835 -1.7600554 -0.79736525
H 1.5861971 1.418878 0.13189033
H 0.5705703 -1.9019085 -0.832677
H -2.0424159 1.1634322 -0.2284117
