10

N -0.673268 -0.9322682 -0.82400316
C 0.9648394 0.8616687 -0.5255319
C -0.038888652 -0.29339513 1.5058153
N -0.86203206 0.6181897 1.2095504
C -0.06060564 -0.03694144 0.08297577
O 1.2289859 0.8507454 -1.7044604
H 0.27773592 -0.87836176 2.3580053
H -1.6004432 -1.2087935 -0.5336664
H -0.67923737 -0.5397185 -1.7607402
H 1.4429138 1.5588747 0.19205572
