11

C -0.36628756 -0.70892197 0.24713738
C 0.80246645 0.16507 -0.11318005
C 0.16006362 1.3386599 -0.68962836
O -1.4777323 -0.75070965 -0.4424366
C -0.37753052 -1.5069888 1.4350821
N -0.29610786 -2.1572216 2.390266
H 1.4766257 -0.38163555 -0.78835404
H -0.25090277 2.0850997 -0.014794022
H 0.31656623 1.6192101 -1.7231948
H -1.3345616 -0.04744517 -1.1289735
H 1.3474007 0.34488276 0.82807636
