11

C -0.43759993 -1.3810955 -0.5671339
C -0.5153931 0.015423059 0.03651188
C 0.84176266 0.6447077 0.22580056
O 1.8950164 0.1395379 -0.058048483
C 0.81304616 2.0112622 0.8190135
N 0.77908444 3.0698397 1.2788823
H 0.0500312 -1.3595665 -1.5462444
H -1.4435251 -1.7900854 -0.6887374
H 0.13719925 -2.0553 0.07438372
H -1.0122019 0.008631003 1.0149777
H -1.1074203 0.69664586 -0.5894055
