11

C -0.02889553 -0.80097605 -0.78356855
C -0.12415229 0.40185054 0.12383364
C 0.07278676 -0.96253575 0.70709459
O -1.36795535 0.98078498 0.35890512
C 0.99814773 1.33359170 0.13561509
N 1.87578445 2.08693677 0.12071757
H 0.86898158 -0.92650764 -1.38098072
H -0.95650628 -1.09829827 -1.26160345
H 1.03909297 -1.20077064 1.13969971
H -0.78762723 -1.36026931 1.23350456
H -1.58965705 1.54619369 -0.39321759
