9

O 1.0085311 -0.9449082 -1.4994037
C 0.3100938 -0.3484768 -0.51966006
C -0.94176835 -0.62281984 -0.078575335
O -1.1984732 0.26537055 0.93847424
C -0.09162251 1.0049953 1.0362127
N 0.84442174 0.6939908 0.19992727
H 1.8657473 -0.5010801 -1.5398122
H -1.7174594 -1.3258666 -0.32735845
H -0.07947045 1.7787948 1.7901957
