9

O -1.3180144 0.20115913 -1.3715317
C 0.55343026 -1.3509623 1.2354757
C 0.3410658 1.2436049 0.07104928
O 1.2075325 1.1261219 0.91840154
C -0.39237335 0.07384843 -0.39693365
N -0.07989347 -1.0246857 0.20745903
H 0.04698439 2.2094898 -0.36933908
H 1.5028207 -1.8811256 1.103186
H -1.8615524 -0.5974509 -1.3977671
