9

N -1.2386754 2.3683026 -0.030726533
C -0.83150643 -0.18797338 0.14997351
C -1.0074636 1.2339159 0.057101425
C 0.47751948 -0.6415804 0.65420854
N 0.5474268 -0.6318204 -0.81107336
H 0.9296007 0.2350132 -1.1815368
H 0.56032866 -1.6340492 1.0905439
H 1.1383631 0.100051984 1.1011446
H -0.57559353 -0.8418602 -1.029635
