9

N 1.1105816 -0.9792877 -2.1884058
C 0.8956194 -0.51242334 -1.1533877
C 0.6154044 0.050176404 0.1560221
C -0.7088182 0.692698 0.37826058
N -0.39433244 -0.57705766 1.0078955
H 1.4899306 0.42126697 0.68229085
H -0.76443255 1.5446023 1.0501832
H -1.4016998 0.7106725 -0.45772088
H -0.8422533 -1.3506472 0.5248621
