9

N -1.0677141 -0.4351366 -0.038293485
C -0.5488421 0.72647876 -0.68637073
C 1.0349375 -0.18848751 0.46532768
C -0.16323851 -1.0742152 0.70275986
N 0.6742606 0.9219132 -0.4303298
H -2.0275733 -0.73716223 -0.13433886
H 1.4181728 0.2112731 1.4117346
H 1.8582058 -0.7671784 0.030408017
H -1.1782087 1.342515 -1.3208973
