9

N 0.7154567 0.2322855 -0.7536654
C 1.0443984 -0.52360004 0.36642376
C -0.2653417 -0.60973185 0.9451815
C -0.63199556 0.44091064 -0.84795845
N -1.2820448 -0.03980822 0.16852044
H 0.6219737 0.18713655 1.4105644
H 1.3987582 0.5529883 -1.4227107
H -0.5163332 -1.2033454 1.8178202
H -1.084872 0.96316445 -1.6841758
