9

N 0.21721970 0.69136160 -0.98212514
C -0.92749976 0.37686745 -0.54572785
C 1.14859936 0.04110407 -0.04672310
C 0.38049371 -0.70831529 1.01388883
N -0.86502690 -0.44302061 0.62151815
H -1.88067791 0.67103512 -0.97368080
H 1.81135759 -0.64054717 -0.59253632
H 1.80311737 0.79569928 0.40555573
H -1.68758295 -0.78418451 1.09983041
