9

N -0.77376586 0.24413846 -0.8751157
C 0.5727584 0.31121856 -0.7617251
C 0.87021923 -0.1118501 0.51520735
C -0.38604116 -0.41007718 1.0859114
N -1.3789624 -0.19213855 0.23739865
H -1.341126 0.47826624 -1.6734526
H 1.1956202 0.6477961 -1.5778677
H 1.846808 -0.19277878 0.9682988
H -0.6055102 -0.7745748 2.0813448
