12

N 1.0085112 -0.15862736 0.15855126
C -1.2532039 0.6479978 1.0199355
N -0.8780832 -0.5088915 -1.0009382
C 0.1913485 0.34049043 1.2014655
C -0.98139286 -0.35859448 1.8129351
C 0.39662236 -0.31102228 -1.0262043
N 1.1815999 -0.45650476 -2.1463373
H 0.72073066 -0.29701972 -3.0260909
H -1.3004452 -1.0854212 2.5408628
H -1.9922671 1.3150139 0.61216044
H 2.0875456 -0.03401964 -2.0400484
H 0.8190339 0.9065986 1.8937078
