12

N 0.2559512 -0.19639038 1.1259031
C -1.0582902 1.11732 -0.6932829
N 1.4849718 -1.7774972 -0.42085305
C -0.051178876 1.0467601 0.39125323
C -1.398021 1.6319622 0.4611162
C 0.4688754 -1.2771437 0.29087707
N -0.73498005 -1.3964597 0.6456869
H 0.8456625 1.6781174 0.40297475
H -1.3112417 0.85661125 -1.7101326
H -2.140646 2.1019623 1.0833895
H 2.3146586 -1.2205487 -0.5492607
H 1.3242389 -2.5646935 -1.0276718
