12

N 2.169266 0.39367723 -0.6934889
C 0.8865057 0.16556413 -0.28231508
N 0.7037663 -0.8424774 0.58670497
C -0.5416632 -1.0236056 1.0057999
C -1.60899 -0.23829103 0.58593535
C -1.2931039 0.76450795 -0.32177252
N -0.061036497 0.9809 -0.7710864
H 2.2898662 0.96423984 -1.5146265
H 2.8340547 -0.3460664 -0.5311503
H -0.6935645 -1.8411298 1.7077589
H -2.619691 -0.40030465 0.9413654
H -2.0654092 1.4229854 -0.7131248
