10

O 1.7556816 0.6228706 0.8940724
C 0.12215159 1.3809099 0.59522295
C -0.9789491 -1.151425 -0.6318463
C 0.770975 0.20415491 0.15238577
N 0.342644 -0.9183809 -0.3727813
H 0.09638063 2.2740476 -0.024498336
H -1.7030541 -0.612673 -0.041759666
H -1.2394758 -1.6648258 -1.5492324
H -0.20526937 1.4682568 1.6246477
H 1.0389156 -1.6029353 -0.64621097
