10

O 0.016743677 -1.706687 -1.1470996
C -0.31508344 0.72865015 0.66354823
C -0.7455656 -0.2947726 1.4005466
C 0.55182856 -0.66372687 -1.4235662
O 1.2212944 1.5151198 -0.9702723
C 0.52394915 0.61278594 -0.5567348
H 1.132054 -0.5135354 -2.356715
H -0.5216328 1.7595247 0.94303936
H -1.3406394 -0.10446026 2.2880285
H -0.5229483 -1.3328987 1.1592253
