10

O 1.01530641 0.15522636 -1.91667267
C 0.93328392 -1.36881342 -0.16407239
C -0.58233762 0.80723389 -0.28242036
C -0.90484790 0.87635096 1.00873632
O 0.59853522 -1.73122726 0.93461545
C 0.46927884 -0.07038344 -0.85720858
H -0.42014471 0.27111112 1.77309735
H -1.05699117 1.44628619 -1.02390296
H -1.67838572 1.56525966 1.33277302
H 1.62630262 -1.95104411 -0.80494542
