10

N 0.83308965 -0.34271947 -0.6042773
C 0.29044327 -1.2973284 0.3442722
C -0.85663754 0.6203022 0.49358714
C -0.74749464 -0.7869503 1.0550195
C 0.2013521 0.7853074 -0.55832946
H 1.6095034 -0.52293205 -1.2331665
H -1.8501034 0.81670827 0.067279
H 0.4691628 1.6168525 -1.1981736
H -0.7259345 1.3770972 1.2797762
H 0.7766189 -2.2663376 0.35401282
