10

N -0.15865235 -0.7498404 -0.8442222
C 1.0599453 -0.28779146 -0.41904727
C 0.836609 0.5953971 0.60878575
C -0.5706811 0.6664563 0.80925673
C -1.1570842 -0.17548117 -0.10287301
H -0.29888874 -1.4129823 -1.5870862
H 1.9758335 -0.62587 -0.8812051
H 1.5936714 1.1342498 1.16038
H -1.0862509 1.269909 1.5427871
H -2.1945016 -0.41404688 -0.2867756
