10

N 0.96883729 -0.25508558 -0.41585060
C -0.14501807 -1.09371710 -0.81773723
C 0.59183985 0.68099855 0.39363540
C -0.88553916 0.49181428 0.57980176
C -1.31630755 -0.70297843 -0.25349713
H 0.10513136 -1.89863900 -1.49962172
H 1.92889652 -0.37398767 -0.72398221
H 1.29036054 1.40355365 0.79683920
H -1.11382073 0.34165982 1.64434691
H -1.42437974 1.40638146 0.29606583
