10

N -0.34096766 1.0070933 0.12555009
C -1.2877179 0.012816433 -0.030029932
C 0.7394333 -0.86128455 -0.27319816
C -0.7147871 -1.2180759 -0.3764464
C 0.89954334 0.5328485 -0.010094283
H -0.54884547 1.9696453 0.35839292
H 1.5460343 -1.5036181 -0.61231494
H 1.7721287 1.1655034 0.07845322
H 0.26788944 -1.3892783 0.6802952
H -2.3327107 0.28435016 0.059392218
