9

O -1.495374 1.5343832 0.06759095
C -0.38580227 0.92625004 0.27092725
N 0.3728911 0.8726988 1.3493596
O 1.1416377 -0.32145357 1.1587111
C -0.15979192 -0.22461268 -0.6436535
C 0.7935557 -0.9436822 0.076449074
H 1.3412107 -1.8526784 -0.14215107
H -1.4249569 0.18340354 -0.4097322
H -0.18337017 -0.1743088 -1.7275014
