11

N -0.5957581 -1.6918665 0.8168794
C 0.23047602 1.2599447 -0.5511215
C -0.16954029 -0.49966913 0.34809062
N 1.5261209 0.8503876 -0.4908036
C -0.5848584 0.7953955 0.5504018
N 0.8069079 -0.51636875 -0.6497575
H 1.9757732 0.9685266 -1.3999102
H -1.4932119 -1.7615769 1.2679155
H -0.21489795 -2.5186183 0.38917008
H -1.3461641 1.2856984 1.1330845
H -0.13484728 1.828147 -1.4139491
