11

N 1.4736537 0.36845392 1.3613118
C 0.43720472 0.1998211 0.44055727
N -0.27615744 1.2325761 0.023238456
N -1.2129494 0.6864649 -0.77969307
C -1.099678 -0.65244555 -0.8899834
C -0.03002619 -1.0224748 -0.10463171
H 2.2868657 -0.19481736 1.1499271
H 1.7316512 1.3420225 1.4453281
H -1.8884879 1.2906803 -1.215478
H -1.7757516 -1.2341558 -1.4989554
H 0.35367516 -2.0161254 0.06837871
