11

C -0.989604 0.8925969 -0.11664608
C 0.059080612 -0.19422942 -0.171482
C 0.67758864 -0.7384993 1.0449464
O -0.31297162 -1.463583 0.3350267
C 0.8366451 -0.24622078 -1.4083457
N 1.4443353 -0.24818617 -2.38987
H -1.7216507 0.76081795 -0.91827625
H -1.5101144 0.84899884 0.8434621
H -0.5279156 1.8786423 -0.22740817
H 1.6813384 -1.1563206 1.0036184
H 0.36326838 -0.3340165 2.0049744
