11

C 1.4802061 0.62190735 0.08051378
N -1.7061632 -0.27741396 -0.79084414
C -1.7985661 -1.0158856 0.35921878
C -0.51265186 -0.7588157 0.84565
N -0.5854071 0.37137568 -1.0600909
N 0.15027912 0.05238769 -0.022468023
H 1.9979913 0.498388 -0.87078995
H -2.4357667 -0.17418382 -1.4825759
H 2.0205219 0.09523535 0.8680122
H 1.4102933 1.683825 0.32714948
H -0.020737212 -1.0968199 1.7462245
