11

C -1.66200692 -0.16602678 1.26730802
N -1.10908762 1.07688890 1.10617380
C -0.79717822 -0.86273689 0.41704802
C 1.22476680 -0.27016507 -1.00559368
N -0.06509663 1.22691331 0.30799367
N 0.11104339 -0.00137410 -0.11619205
H -0.76422502 -1.90940647 0.15123198
H -1.43070358 1.92492350 1.55212340
H 1.09850001 -1.26959529 -1.42353418
H 2.16367053 -0.21823565 -0.44958183
H 1.23031736 0.46881434 -1.80697745
