11

C -1.3069832 -0.7867209 0.6824135
N -0.12802014 -0.051848736 0.2655158
C 0.39552042 0.10054758 -0.9709739
C 1.4880847 0.9032819 -0.7696926
N 1.5715151 1.1919272 0.5527618
N 0.5956374 0.61435956 1.1720884
H -1.364297 -0.706762 1.7678623
H -2.2044325 -0.35373673 0.23443758
H -1.2203082 -1.8372291 0.39647862
H -0.03401668 -0.35678735 -1.8497477
H 2.2073002 1.2829684 -1.4811441
