10

O -2.72220271 0.34503353 0.77677427
C -1.80961453 -0.44365045 0.80287584
C -0.47425515 -0.17830597 0.23456419
N 0.53518812 -0.99180227 0.23598113
O -0.22804829 1.00877727 -0.34982729
C 1.53780073 -0.29220896 -0.39938624
C 1.06014158 0.92699912 -0.75180550
H -1.88092889 -1.44878833 1.25612566
H 2.51737642 -0.71845485 -0.55216563
H 1.46454250 1.79240089 -1.25313650
