11

C -0.26740324 1.22107400 -1.00007876
C 0.15269310 0.18018995 -0.05615886
C 1.54067124 0.15412964 0.48675365
O 0.06657409 0.75335080 1.29189917
C -0.59200506 -1.12360549 -0.23053958
N -0.53841333 2.01376450 -1.79583463
H -0.36290860 -1.53254099 -1.21780655
H -1.67453947 -0.98531125 -0.14961380
H 1.97647179 1.13899246 0.24291760
H -0.23369112 -1.83806044 0.51581951
H -0.06744950 0.01801688 1.91264225
