11

C 0.76010835 1.432466 -0.06803918
C 0.20878704 -0.9851025 -0.8075202
C -1.5068389 0.32407206 0.4325477
O 0.6923015 0.2858589 1.296139
C -0.092844054 0.21657313 0.058424883
N -2.6323462 0.45543766 0.6583983
H 1.2796124 -1.0017015 -1.0287535
H -0.10487158 -1.9178572 -0.32883245
H 0.18991612 2.2494752 0.40810126
H 1.5303215 -0.17879008 1.1354403
H -0.32414612 -0.88043195 -1.7559061
