10

C -1.31079653 0.22925804 -0.35647320
C 0.52725645 -0.81385569 -0.60264671
N -0.80245066 -0.60151139 -1.17644369
C 1.04167116 0.37682720 0.10973612
C -0.31117378 0.53072343 0.71784365
N 0.48688109 -0.72700299 0.88166417
H -2.31229662 0.63682081 -0.44433692
H 1.16963511 -1.57238247 -1.03785617
H 2.00758475 0.82629047 0.29762169
H -0.49631035 1.11483231 1.61089096
