10

C 0.05306438 -0.40581787 1.2369205
C -0.16099845 0.1444744 -1.038708
N 0.40009066 -1.2042141 -0.90039027
C -0.9977106 0.82640296 -0.1541176
C 0.9994426 -0.47748932 0.027173776
N -0.9800834 0.3447651 1.1171485
H 0.0026493934 0.540375 -2.0391197
H 0.15678531 -1.1356989 2.0359778
H -1.561083 1.7192258 -0.40276113
H 2.087843 -0.3520232 0.11787588
