13

N 1.6519252 -0.7861273 -0.092808284
C -1.5404876 -0.49444485 0.92231625
C -0.3947379 0.51949203 0.48235193
N -0.9558093 1.6917627 -0.1364835
C 0.3631185 -0.3686304 -0.45680565
N -1.2066116 -1.5454262 0.35611722
H -1.6529598 2.1016228 0.47554365
H 0.21988343 0.6981408 1.3732737
H -0.6285811 -2.079271 -0.2542428
H -0.23688602 2.3854666 -0.31501034
H 2.3823357 -0.16944297 -0.4496258
H 1.8786588 -1.7305278 -0.39064407
H 0.12015145 -0.22261451 -1.5139824
