12

O -0.6638209 1.4883934 -0.8190029
C 0.186689 0.4162091 -1.1339288
C 0.4801992 -0.4017655 0.12174147
O 1.0363892 0.452633 1.0855246
C -0.79062206 -1.0131351 0.67004263
O -1.1305844 -0.8216335 1.8120078
H -0.26146847 1.9153748 -0.047657464
H 1.1393731 0.7575412 -1.5622739
H -0.32312116 -0.19882004 -1.8839642
H 1.1661915 -1.2289984 -0.12777509
H 0.5321953 0.2928853 1.9016663
H -1.3714203 -1.6586838 -0.01638071
