12

O -0.24557233 1.3449614 0.30969265
C 0.6489883 0.2650807 0.67721057
C -0.6773559 1.4194503 -0.94414634
O 0.14179033 -1.7849802 -0.5842817
C 0.012166587 -1.1207215 0.6408381
O -0.476192 0.6212287 -1.8272004
H -1.2516285 2.3458111 -1.0688701
H 0.9322952 0.5348108 1.6975541
H -1.037757 -1.0265203 0.96575403
H 0.52907497 -1.7343941 1.3870038
H 1.52866 0.28848383 0.027817184
H -0.104469806 -1.153211 -1.2813718
