12

O 2.0624466 -0.99659187 0.76920956
C -0.046646155 0.05575294 0.5166896
C -0.77607983 -0.036069248 -0.8283732
O 0.68318146 1.2543757 0.56023335
C 0.86137754 -1.1315523 0.69734573
O -1.5433874 1.1192015 -1.0373199
H -1.4599602 -0.8907277 -0.83911824
H 1.6172773 1.0004971 0.58430773
H -0.95533 1.8667294 -0.85951805
H -0.026591849 -0.17821318 -1.6264884
H 0.3802658 -2.1258876 0.7414361
H -0.79655313 0.062484834 1.3215957
