13

C 0.19876696 -1.5208087 -0.59854466
C -0.20587544 -0.05688139 -0.58471996
O -1.5714597 0.13322733 -0.22932434
C 0.73632133 0.7681892 0.3020286
O 1.9435855 0.62249166 0.26572207
N 0.09744517 1.654891 1.1083328
H 1.2476138 -1.6152548 -0.88653916
H -0.42710882 -2.0777097 -1.3018594
H 0.084821194 -1.9657925 0.39903855
H -0.112301156 0.35905144 -1.5934181
H -1.7576573 -0.43633556 0.52806324
H -0.8867917 1.8130662 0.9693981
H 0.6526402 2.3218658 1.6218222
