10

O -0.24010994 -0.17215343 2.0276382
C -0.10816784 -0.034615725 0.6898821
C 0.70212185 -0.6156009 -0.25881374
C 0.29282427 0.008529999 -1.4637351
N -0.6735923 0.8880255 -1.280029
N -0.9052616 0.84571934 0.05263446
H 0.3978937 -0.8273132 2.3367534
H 1.463949 -1.3665323 -0.110034555
H 0.6796117 -0.16175465 -2.4597065
H -1.609269 1.4356954 0.46541095
