10

O 1.0163978 -1.5759052 -0.104304224
C -1.1852746 0.14708425 0.4580751
C 0.08540642 0.83941734 0.30939382
C 0.09474703 -0.93048024 -0.7096551
N 0.49582914 0.35588464 -0.99660623
N -1.196344 -0.9825591 -0.1982659
H 0.9939268 -0.56604224 0.73476404
H -2.0076995 0.44626087 1.1017029
H 1.496808 0.375072 -1.1483206
H 0.20620279 1.8912678 0.5532161
