10

O -1.26056512 0.35553829 -2.21966212
C -0.27968618 0.74463965 0.94976913
C 0.63540737 -0.40746405 0.61809178
C -0.73726583 0.27381833 -1.13643745
N -1.03354601 1.12349123 -0.00300803
N 0.23013184 -0.61905027 -0.74475748
H 0.44760704 -1.26922174 1.26946499
H 1.69025762 -0.12328718 0.72068110
H 0.60672040 -1.29937694 -1.38062370
H -0.29906129 1.22091272 1.92648200
