12

N -1.86780075 -0.23068933 0.65531721
C -0.59191120 -0.03484152 0.13198731
C 0.71653726 0.34524787 0.78075674
N 0.01829356 1.23585547 -0.19518329
C 0.10284858 0.11851082 -1.18343300
N 1.43010917 -0.46434341 -1.20447403
C 1.79595823 -0.33089862 0.01335554
H 0.76702331 0.69040026 1.80760931
H -2.11081272 -1.20989930 0.74490955
H -2.58294325 0.29206939 0.17250922
H -0.43216404 0.25503208 -2.11863316
H 2.75486189 -0.66644359 0.39527868
