12

N -0.45618612 -0.45287368 1.9133608
C -0.141623 -0.13604966 0.60072976
C -0.9272833 0.7203667 -0.1764255
N -0.5972193 1.0809854 -1.4142069
C 0.5383647 0.5791622 -1.8950151
N 1.3656408 -0.24672137 -1.256784
C 1.0214247 -0.5985824 -0.022916049
H -1.4319859 -0.3797387 2.1631212
H -0.031213304 -1.2962012 2.2710571
H -1.8550242 1.1315972 0.22079907
H 0.81733346 0.87251383 -2.9043374
H 1.6977715 -1.2744582 0.5006171
