12

N 1.1140662 0.5232513 -1.6389645
C 0.40703115 0.20749994 -0.575851
C -1.2290912 -1.2265474 0.9547215
N -0.045202475 -1.1628518 1.5360589
C -0.5914338 0.7836563 0.2065905
N -1.5831553 -0.27625138 0.079682745
C 0.55609006 -0.09645996 0.90921825
H -0.8874688 1.8291981 0.29708603
H 0.83500355 1.2783713 -2.2534792
H 1.839538 -0.09542651 -1.9771508
H -1.9105326 -2.054381 1.1480991
H 1.4951549 0.289941 1.3139888
