10

O -0.878052 0.048420668 2.0047023
C -0.42377022 -0.05292305 0.7361906
N -0.7290499 0.8357026 -0.23454575
C 0.21438192 0.62581867 -1.1594417
C 1.0925511 -0.37969115 -0.7568959
N 0.7401551 -0.81115896 0.47995323
H 1.8927037 -0.8578358 -1.3040204
H -1.608201 0.6819893 1.982773
H -0.5136005 -1.2616143 0.34684712
H 0.21288186 1.1712918 -2.0955627
