10

O -1.912725 0.47316638 0.5337045
C 0.6258936 -0.8900501 -0.9041771
N 0.410264 0.94714564 0.41120258
C 1.169803 0.42060113 -0.4696748
C -0.636839 -0.05017273 0.6504949
N -0.46234342 -1.1504439 -0.28528497
H -1.8853941 1.3685544 0.8918645
H -0.43712905 -0.46524185 1.6536019
H 1.0537063 -1.5529807 -1.6498975
H 2.0747638 0.89942163 -0.831834
