10

O 0.07321947 -2.25395773 0.01274399
C 0.25880705 -1.23362382 0.62643275
C -0.78679601 0.46036165 -0.83871194
O -1.33815050 1.51853928 -0.65720433
C 0.47507169 0.10837499 -0.06731091
O 0.79619198 1.10863104 0.84309359
H -1.15719232 -0.30125895 -1.54731277
H 0.27122098 -1.18089393 1.73371506
H 1.26974373 -0.03873970 -0.81879571
H 0.13788410 1.81256735 0.71335030
