10

O 0.72063833 1.2068492 0.7732959
C 0.3488269 0.28463578 -0.19816971
C 0.84210825 -1.1188583 0.1422555
O -1.8651274 0.98422134 0.2848403
C -1.162769 0.23900506 -0.35392573
O 0.71773165 -2.0473194 -0.61578697
H 0.75751644 0.54075587 -1.1907679
H -1.5605981 -0.50794005 -1.0632772
H -0.10286532 1.6265426 1.0756667
H 1.3045381 -1.2078922 1.1458691
