10

O 0.64252514 -2.10502208 -0.31475089
C 0.26497935 1.52447493 0.18063690
N -0.99684780 -0.47022095 -0.00027755
C -0.95709151 0.96724899 0.18217350
C 0.22379440 -0.98899764 -0.14162154
N 1.11014050 0.23140064 -0.03307298
H 1.76533622 0.11245295 0.73942476
H -1.91020239 1.46333901 0.30258961
H -1.81813712 -1.05330080 -0.03742202
H 1.67550318 0.31862486 -0.87767969
