10

O -1.1628407 -1.8599031 -0.36274886
C 0.1017486 1.3566481 0.18421467
N -1.0053134 0.4495433 -0.04548819
C 1.3197058 0.79299694 0.23748662
C -0.59744763 -0.8146038 -0.1665352
N 0.8995833 -0.6911869 0.007909168
H -1.9802171 0.6923114 -0.12613799
H -0.1482021 2.4030693 0.29169962
H 1.2019963 -1.2641292 0.79560596
H 1.3709866 -1.0647463 -0.81600577
