10

O 2.3636777 -0.39738727 0.27383775
C 1.1733229 -0.19666365 0.13578506
N 0.32986316 0.57216454 0.9245364
C -0.9735564 0.55193806 0.43602738
C -0.97662383 -0.22353117 -0.66238123
N 0.32550353 -0.6810058 -0.8494909
H 0.6611061 1.0597113 1.7388744
H -1.7752197 1.0904646 0.91444474
H -1.781144 -0.4916995 -1.3272825
H 0.6530705 -1.2839912 -1.584351
