11

C -0.42123064 0.17258763 0.42676857
C 0.8346335 -0.5982321 0.5454521
C -1.2914798 0.5074536 1.3732204
N 1.4268483 -0.7409614 -0.5702741
C 0.60821426 -0.068515904 -1.5558399
O -0.52890915 0.49479198 -0.8902593
H -1.1166712 0.20335242 2.4006639
H -2.1813114 1.0812728 1.1464932
H 1.1809442 0.7296786 -2.0398016
H 0.26550892 -0.7796961 -2.3138468
H 1.2234528 -1.0017315 1.4774231
