12

O 1.96654897 -0.49397403 1.46242226
N -1.27183372 0.81498248 -0.63542940
C 0.05806584 1.07882081 -0.02823889
C 0.18936340 -0.41174983 0.18727183
N 0.94480807 -1.20366199 0.82081948
C -1.06203419 -0.65318544 -0.61663240
H 0.80964998 1.48684703 -0.71590170
H 0.02314970 1.69256831 0.87624530
H 2.44294416 -1.19048805 1.92841373
H -1.85540433 -1.21352206 -0.11332676
H -0.87041405 -1.10487332 -1.59801080
H -1.37484382 1.19823583 -1.56763281
