12

O 0.87432206 1.9641734 -1.2829595
N 1.0136431 1.4098161 -0.0038460211
C 0.31142446 0.36644197 0.10610451
C 0.13376448 -0.6085011 1.2437716
N -0.5629096 -1.5155017 0.29550827
C -0.5862894 -0.47978002 -0.7700418
H 1.4700699 2.7217748 -1.2448285
H -0.49190074 -0.21866633 2.0567553
H 1.0500928 -1.0285183 1.6697215
H -1.4875184 -1.7872797 0.60800534
H -1.5642117 -0.016861223 -0.95502645
H -0.16048695 -0.80709815 -1.7231644
