11

C 0.62253875 0.7477314 1.479729
C -0.22846332 -0.11122657 -0.23306826
N -0.35277686 0.9480378 0.48855338
C 1.305731 -0.49945298 1.3631885
C -1.0099913 -0.4885632 -1.441862
O 0.7469121 -0.9615769 0.16565965
H -1.4389108 -1.48506 -1.3119091
H -0.35243884 -0.5145214 -2.3159413
H 1.8225249 0.71057904 1.0713236
H -1.8011471 0.24340843 -1.6027178
H 0.68602157 1.4106444 2.3370442
