11

C -0.79178536 -1.7129 -0.53751504
C -1.3127055 -0.44390678 -1.1643069
N -0.56580657 0.6843338 -0.605001
C 1.2752515 0.74840796 1.0934706
C 0.24170625 0.16275066 0.20092015
O 0.14224924 -1.2713864 0.27488622
H 1.2901983 1.8302078 0.9693448
H 2.258709 0.3343685 0.8541055
H 1.0530516 0.4999238 2.1356258
H -2.3877807 -0.3432954 -0.96532196
H -1.2030879 -0.48850375 -2.2562082
