10

N -0.95454881 -0.57311175 -0.21755360
C -0.50276926 0.14695070 0.88077161
O -1.09158155 0.31818340 1.91887765
C 0.87553758 0.62811502 0.42547305
C 0.01995337 -0.53744510 -1.20858007
N 1.07727775 0.11475734 -0.92509178
H -1.84888959 -1.03223350 -0.26119883
H -0.14974668 -1.04640957 -2.15201953
H 0.92356369 1.72148422 0.43602358
H 1.65120362 0.25970940 1.10329803
