10

N -0.645707 0.8749981 0.71712583
C -0.46049878 -0.4428813 0.6908251
O -0.8878673 -1.3442357 1.4059557
C 0.5516627 1.3419031 -1.0257922
C 0.47718987 -0.90593195 -0.45957074
N 0.90020514 0.25148997 -1.2677766
H -1.2559121 1.1721392 1.4705833
H 1.3731431 -1.3863052 -0.061769225
H -0.040427152 -1.6120964 -1.1107583
H -0.011788671 2.0509202 -0.3588227
