12

C -1.09809970 -0.95188227 -1.85680939
N -0.33761725 -0.65584459 -0.82033400
C 0.03407071 0.51332307 -0.29195882
N 0.97060859 0.48880682 0.76151886
C 0.60895019 0.69036124 2.06851025
O 1.39721411 0.78338325 2.98399658
H -1.53316753 -0.15594883 -2.44622499
H -1.29682963 -1.99030873 -2.07383956
H 0.03899819 -1.45281794 -0.31183239
H -0.25941551 1.42957818 -0.78363269
H -0.49016118 0.75487945 2.18441071
H 1.96544908 0.54647037 0.58619553
