11

N 2.9063594 -0.12989073 -0.87932223
C -0.76972425 -1.4568629 0.56921923
C 0.5883489 0.74895686 -0.027531054
C -0.4917514 -0.28939116 -0.29808047
C 1.8917316 0.26763758 -0.4986023
O -1.6903553 0.12016804 0.44412825
H 0.6344963 0.94005346 1.0504439
H -0.26709685 -1.236283 1.5300058
H -0.69292593 -0.39917886 -1.3682576
H -2.4694593 -0.26079324 0.010144383
H 0.36037654 1.6955838 -0.53214777
