15

N -1.01252625 -0.18341484 1.77189420
C 1.42196015 -0.26476138 -0.27021668
O -2.05764875 -0.61633883 -0.14963854
N 0.28079925 -1.10753615 0.06912144
C 0.74922146 0.93918793 -0.92892020
C -0.82754594 -0.21296608 0.35976630
O -0.49528389 1.04425193 -0.24011764
H -1.77335115 0.44285758 2.00809363
H 0.01123638 -1.72346398 -0.69121225
H 2.13540341 -0.78427309 -0.91644965
H 0.58039860 0.76033134 -2.00186399
H 1.94230636 0.03476334 0.64587138
H -2.09398140 -0.33200040 -1.06960381
H 1.29953512 1.87725670 -0.81194624
H -0.16052367 0.12610611 2.22522156
