9

O -1.45348347 -0.07729244 -0.90319087
C -0.49899927 -0.39097354 -0.23888565
C -0.27980931 -1.79226604 0.16946407
O 0.24330550 1.88591153 -0.20762153
C 0.53961294 0.60148769 0.22646220
N -0.08127569 -2.87801291 0.50381501
H 1.51757459 0.26180615 -0.14841937
H -0.57293905 1.84262585 -0.72690724
H 0.58601375 0.54671389 1.32528351
