10

O 1.4303368 0.37648964 -0.0004137975
C -0.8242668 -0.28705102 0.00052510924
C 0.58889854 -0.7912687 0.27800426
C 0.701545 1.3132406 -0.58450836
N -0.6017409 1.0088569 -0.67749083
H -0.16206065 2.1133137 -0.164062
H -1.3943194 -0.930754 -0.6746336
H 0.90179986 -1.5946074 -0.39469147
H -1.4168752 -0.12541865 0.90410846
H 0.7766825 -1.082801 1.3131624
