10

O 1.0240593 0.258678 0.8729128
C -0.114899345 -0.20752312 1.4305309
C -0.70034003 -0.17258705 -0.6718155
C 0.7545895 0.33359084 -0.54586303
N -1.1154143 -0.4744145 0.7033566
H -0.7818847 -1.0770938 -1.2830368
H -1.3703989 0.5784074 -1.1014417
H -0.070634946 -0.3178564 2.5100863
H 0.88792497 1.3733658 -0.856457
H 1.4869983 -0.29456696 -1.0582724
