12

O 0.02540860 2.75249250 -0.72375934
N -0.54731895 1.72454648 -0.44082211
C 0.36739242 0.60655909 -0.16384627
C 0.01434293 -0.16479296 1.12537184
N 0.07577012 -1.43058497 0.37302492
C -0.02556723 -0.69200944 -0.89810568
H 1.41608355 0.90754537 -0.26559733
H 0.73188365 -0.08810609 1.94804525
H -0.69001716 -2.06644230 0.54946821
H -0.98797397 0.10798325 1.48288017
H 0.66113508 -1.03977220 -1.67623719
H -1.04113919 -0.61741891 -1.31042231
