11

N 1.4747732 0.20690364 0.9046225
C 0.22589369 0.64108896 -1.2492521
C -0.6855783 0.091703855 -0.5230367
C 1.2646197 0.004252769 -0.43544433
N -1.7491509 -0.51834416 -0.07823548
N 0.46929926 0.09795623 1.6727579
H 0.78151876 0.4383509 2.5944788
H -2.3918204 -0.9903138 -0.7019954
H 2.0919127 -0.49111483 -0.94451165
H -1.764016 -0.7173879 0.914798
H 0.28254816 1.2369044 -2.1541812
