9

N 0.68828917 1.8098277 -0.3369451
C 0.2558597 0.20654891 1.1499294
C -0.13896526 -0.35299766 -0.03840381
N -0.6615116 -1.2941664 -0.7722434
N 0.7359399 1.4828076 0.8667288
O 0.15252653 0.65487564 -0.9941357
H -0.33857685 -0.18297838 -1.6676062
H 0.24780454 -0.14750421 2.1650622
H -0.9413661 -2.1764133 -0.37238622
