12

C -0.18810499 -0.97273123 -0.3043942
N -0.1629236 0.26607594 -0.8924284
C -0.27748135 0.3979777 -2.2697458
N -0.0576895 -1.102166 1.0231106
C 0.17088993 0.06882242 1.8788167
O -0.25682554 1.4616883 -2.8384433
H -0.09519024 1.14395 -0.38494012
H -0.38692436 -0.57893175 -2.7653751
H 0.97421205 0.7182077 1.5030353
H 0.4249302 -0.26451424 2.886937
H -0.7541191 0.65629447 1.9361914
H 0.6092266 -1.7946734 0.22723573
