10

O 0.8234677 0.9333953 -1.7086347
C -0.017844023 0.8150104 -0.60418344
C 0.20696312 -0.48861158 0.1224899
O 1.0219759 -1.3003244 -0.25980744
C -0.61780375 -0.7886373 1.3645433
O -1.4387717 -0.021768348 1.7915452
H 1.3501977 0.12207976 -1.749736
H 0.13901587 1.6376076 0.11087365
H -1.0781438 0.86053365 -0.89687794
H -0.38905668 -1.7692852 1.8297873
