11

N -0.8763621 0.9947614 -1.3389639
C -0.28046453 0.23784181 -0.31190354
C 1.0160342 0.30070427 0.15453933
N 1.0784293 -0.560444 1.2088938
N -0.07663696 -1.1779569 1.4520746
C -0.91082 -0.70087624 0.5388131
H -1.5589315 0.4600787 -1.860277
H -0.19310622 1.3647251 -1.9852083
H 1.8690306 0.87870413 -0.16909598
H 1.8722326 -0.7604938 1.7933396
H -1.9394058 -1.0370443 0.51778835
