10

O -1.34344080 0.61743517 -1.35904652
C 0.56599672 -0.78916907 0.97092792
C 0.82446901 0.95768715 -0.17648703
N 1.46245798 0.32510475 0.73318533
N -0.85013165 -0.42440204 0.80744507
C -0.43660976 0.21436310 -0.45482190
N -0.14896211 -1.21250912 -0.23449257
H 0.82640610 -1.53917118 1.71127159
H 1.17047912 1.87374940 -0.64043575
H -2.07066429 -0.02308823 -1.35754618
