11

C 0.50786626 -0.9641903 1.5018722
C 0.16459444 -0.12576811 0.3201585
N 0.63370943 1.0335053 -0.00830201
C -0.03177661 1.3595941 -1.182187
C -0.87728435 0.36062807 -1.5004504
O -0.7617026 -0.6054933 -0.5435916
H -0.38616857 -1.195381 2.0883722
H 1.2147281 -0.4162585 2.128063
H 0.9627543 -1.9107419 1.1962463
H 0.15295368 2.289239 -1.702855
H -1.579674 0.17486665 -2.297326
