10

C -0.10868192 1.0253142 0.9220067
C 0.3240169 -1.3134624 -0.06762518
C 0.6353245 -2.4725523 -0.013094828
C -0.05656162 0.06218956 -0.100739
N -0.20243822 2.2231343 0.36567095
N -0.23613374 2.0838816 -0.9585993
N -0.100317806 0.82800263 -1.3275971
H -1.0968434 0.18534112 -0.83913565
H -0.08224401 0.8785358 1.9933218
H 0.9238794 -3.5003843 0.025791673
