9

O -1.31722788 -0.64674998 0.87280105
C -0.61267894 0.29955341 0.13426487
C 0.84855385 0.19909226 0.32040749
C 2.02809323 0.08688956 0.50554553
C -1.19281984 0.10508274 -2.40762873
N -0.91980820 0.20917683 -1.26891297
H -0.97075085 1.27145853 0.48335765
H -0.94451403 -1.52185618 0.69497723
H 3.08115283 -0.00264697 0.66518812
