11

N -0.10407487 0.056339636 -1.7537041
C 0.8691786 0.5401864 0.1596394
C 0.25564098 -0.73800546 0.6904849
C -1.2055463 -0.170885 -1.242891
C -1.0261495 0.04622372 0.34458718
O -0.27023163 1.2420439 0.48147345
H 0.35621083 -0.7897125 1.779388
H 0.7926095 0.44898716 -1.9676772
H -1.9385998 0.03730118 0.93711996
H 1.8221128 1.0267215 0.3576749
H 0.44884944 -1.6992005 0.21390468
