11

N -0.33537284 1.05953213 0.82989793
C 0.58213277 1.49872047 -0.00865990
C -0.80080979 -0.26960894 0.32285794
C 0.47400666 0.28064421 -0.97747947
C 0.55922120 -0.91318044 0.01286073
O -0.96511082 0.02892351 -1.05449638
H -0.61408827 1.50839303 1.68992746
H 0.96638919 0.31317115 -1.94517859
H 1.32371098 -0.91359191 0.79184389
H -1.65569619 -0.71699754 0.82782412
H 0.46561716 -1.87600580 -0.48939822
