11

N -0.008145452 1.3577256 -0.28342348
C 1.0968126 0.85964864 -0.8019495
C -0.8749239 0.20222044 0.10880098
C 0.17202277 -0.6714608 0.816297
C 0.65347475 -0.6294239 -0.66008013
O -0.75632626 -0.6073896 -1.0503744
H -1.8869764 0.43525892 0.43655235
H -0.19578755 2.3357518 -0.11891095
H 0.7860068 -0.2179381 1.5964254
H -0.21618521 -1.6502115 1.0980772
H 1.2300279 -1.4141812 -1.1414143
