11

N 0.73763525 1.7395692 2.3403862
C 0.2507544 1.3220495 1.3805948
C -0.34714225 0.7811833 0.14494851
C 0.5798308 -0.117709 -0.6995906
C -0.40153044 -1.231865 -0.312125
O -1.2421963 -0.302902 0.3996424
H -0.8359204 1.6020222 -0.39013734
H 0.59139925 0.14397284 -1.757564
H 1.6001503 -0.22306836 -0.3278444
H -0.9351946 -1.7130088 -1.1356542
H 0.0022140318 -2.000244 0.35734314
