17

C -2.2285225 -0.7830533 0.6455162
N -0.8619071 0.16934767 -0.6136743
C -0.5737248 0.6822163 -1.9299296
O -0.35507858 -0.713979 1.3080881
N 1.3854183 0.17006724 0.10580002
C 2.3282197 -0.008124844 1.191583
C 0.060526296 -0.11477335 0.26429802
H -1.4687612 0.57396924 -2.5532894
H 2.1146393 -0.96131456 1.6780937
H 0.23650281 0.12928987 -2.4289083
H 1.6005303 0.8709623 -0.5822409
H -2.6048586 0.13750175 1.0734867
H -0.31535625 1.7534759 -1.9305943
H -2.2249033 -1.6187294 1.3400366
H -2.692981 -1.0435464 -0.30109385
H 3.3421905 -0.029747853 0.7875829
H 2.2580662 0.7864385 1.945245
