17

C -0.16517621 -1.8904237 1.3888229
N -0.3369751 1.0828134 -0.77009857
C 0.07327088 0.06902559 -0.112470955
O 1.3806015 -0.13322757 0.11929332
N -0.68752843 -0.9567911 0.41021886
C 2.2573154 0.8262588 -0.46527788
C -1.7622749 1.2124468 -0.9864003
H -2.1903346 0.35828963 -1.5339785
H 3.2613204 0.50728947 -0.17636031
H -0.9056299 -2.6820266 1.5346695
H 0.7548808 -2.3450806 1.0163358
H -1.9449724 2.1087325 -1.5858748
H 2.1578326 0.8328692 -1.5546962
H -2.3268535 1.3347805 -0.047305577
H 2.0493834 1.8308562 -0.09083529
H -1.6642982 -0.7345328 0.49674466
H 0.049437877 -1.4212799 2.3572133
