10

N 0.7518958 -0.99777293 -0.81311476
C -0.64951164 -1.1337223 -0.45862624
C -0.054622535 0.217218 -0.6576092
C 0.36108962 1.7842242 1.4372416
C 0.15948595 1.073326 0.48922962
H -0.9109443 -1.4140668 0.5575639
H -1.2891926 -1.5490811 -1.2343704
H 1.3513654 -1.1300784 -0.0046684695
H -0.25437552 0.7332749 -1.5943787
H 0.5348097 2.4166784 2.2787328
