10

N -1.0492833 0.2627964 0.3620886
C -0.6586911 -0.9675015 -0.100729436
C 0.66945744 -0.8861821 -0.438308
C 1.0945029 0.4445251 -0.17052059
C 0.011777206 1.1293216 0.32297778
H -1.976196 0.49537018 0.6805049
H -1.357665 -1.7907045 -0.14745325
H 1.2757665 -1.6889108 -0.83363336
H 2.086563 0.84706485 -0.32299665
H -0.096231915 2.1542208 0.64807
