11

N 1.3183502 1.1594826 1.2679034
C 1.0275594 -0.45134276 -0.48602924
C 0.48994008 0.47113156 0.48165986
C -1.4019735 -0.7442149 -0.81885993
C -0.029258432 -1.05841 -1.114101
N -1.8182456 0.119159065 0.045404837
O -0.7887589 0.7728637 0.7266956
H 0.14196615 -1.8141829 -1.8780026
H 0.9823868 1.7877333 1.9832745
H -2.223843 -1.2345945 -1.3319291
H 2.3018765 0.9923749 1.1239839
