11

N -1.33094601 -0.34538588 1.19648184
C 0.38078337 0.18918788 -1.14674543
C -0.95429849 -0.11853901 -1.19898782
C -1.74691084 -0.37093879 -0.02498079
C 0.78053152 0.16839903 0.23751786
N 2.05576926 0.38878986 0.55917916
O 0.02677481 -0.04139224 1.32102805
H 2.67862181 0.57172548 -0.21189220
H -1.47028438 -0.17965078 -2.15506319
H -2.80446604 -0.60886116 -0.08941326
H 2.38442482 0.34666553 1.51287576
