10

O -1.9640785 0.9906959 -0.18833487
C -0.80677795 0.35039508 0.04057502
N -0.4774713 -0.30113688 1.1172289
C 0.8019185 -0.76741606 0.8564494
C 1.2167741 -0.38380876 -0.37962765
N 0.15595932 0.34873787 -0.90857995
H -2.4924788 0.8659734 0.61287653
H 1.3386621 -1.3533463 1.590406
H 2.1297138 -0.54513353 -0.9336973
H 0.09777878 0.79503924 -1.807296
