9

O 0.1850397 -0.26040962 1.5586413
C -0.83360046 0.4988628 -0.5480015
C -1.7736206 0.5645764 -1.2967707
C 1.0472311 -0.7983099 0.5746716
C 0.31721878 0.45482767 0.33487082
H -2.6128848 0.6161693 -1.9543363
H 0.86343336 1.3927613 0.4297789
H 2.111228 -0.75929594 0.80661005
H 0.6959549 -1.7091821 0.09453597
