9

O -0.92110455 -2.2365518 -0.28644976
C 0.043389175 -0.16839232 -0.6016667
C 0.12073526 2.305869 0.2322676
C 0.082654044 1.1623368 -0.16778205
C -0.13506076 -1.3539197 0.24568115
H 0.026378408 -0.36683375 -1.6732657
H 0.97629297 -1.6181911 0.37144592
H -0.36164612 -1.0374773 1.293236
H 0.16836159 3.3131602 0.5865337
