10

O 0.6281215 -0.6298267 2.2110116
C 0.817939 -0.31487218 -0.17563105
C -0.91496503 0.8364745 -0.2611306
O 0.76078415 -1.5690911 -0.6550718
C 0.3347274 -0.09176526 1.1811976
O -0.5380523 0.97535455 1.0702213
H -1.6626613 0.067453064 -0.4433157
H -1.1310303 1.8007938 -0.72954017
H 1.4190999 -1.6558734 -1.3584127
H 0.28603697 0.58135295 -0.8393288
