10

O 0.35904875 -1.0614856 1.7752429
C 0.7142138 -1.1281503 0.5192616
C -0.41323394 -0.6491777 -0.32473963
O 0.562521 1.5100094 -0.1286483
C -0.20106108 0.6911792 -0.99602
O -1.325225 -1.4097639 -0.57729053
H 0.40310103 0.54394954 -1.8961397
H -1.1672297 1.1255634 -1.2870237
H 1.0696138 -1.4274977 2.3217149
H -0.0017486996 1.8053739 0.5936428
