10

O -0.016164549 -1.3760507 -0.9575773
C -0.40507996 -0.38703665 -0.05051608
C 0.6844243 0.0077457316 0.9443911
O 0.63227415 1.3861911 0.47228032
C -0.26132515 1.0728227 -0.5036304
O -0.6922563 1.7709116 -1.3658235
H -0.65449643 -1.3944101 -1.6830353
H -1.3817592 -0.5846506 0.41195858
H 1.653701 -0.44301128 0.7261362
H 0.44068202 -0.052511845 2.0058165
