11

C -1.2830896 -0.026067654 1.2427899
N -0.57981896 -1.129623 0.9635956
C 1.195557 0.47231573 -0.6435528
N -0.66808814 0.3507245 -0.7535479
C -0.17670745 -0.85903096 -0.28718776
N -1.3277475 0.9009229 0.27851564
H 1.8604591 -0.062574275 0.03565555
H -1.7958243 0.12543043 2.186748
H 1.4499023 0.32698917 -1.6887906
H 0.20904063 -1.6195563 -0.9596185
H 1.1163169 1.5204697 -0.3746074
