11

C -0.96105377 1.29693947 0.22803115
N -0.09171814 0.15888605 0.01461416
C -0.25727304 -1.12883087 0.35557076
N 0.78432695 -1.84119689 -0.03035566
C 1.57130658 -0.90578644 -0.61700697
N 1.08805489 0.31950659 -0.61679753
H -1.83897401 0.96594161 0.78563540
H -0.42592907 2.05844645 0.79925052
H -1.26994158 1.70901263 -0.73474116
H -1.13165073 -1.49836430 0.87428666
H 2.53285181 -1.13455439 -1.05848739
