11

C -0.93779683 1.3022181 0.29714823
N -0.0883035 0.1606563 0.026941929
C -0.38010937 -1.1504712 0.0073730643
N 0.69640994 -1.8573979 -0.2778512
C 1.6409653 -0.89607775 -0.4264131
N 1.2188535 0.34012446 -0.2536406
H -0.5765741 1.8264233 1.1842445
H -0.91932726 1.9789078 -0.55962837
H -1.9573737 0.9501301 0.46720657
H -1.3700849 -1.5395473 0.20397525
H 2.6733408 -1.114966 -0.66935635
