11

C -0.14592019 -0.39203742 0.21001202
N 0.8759029 1.653474 0.012399293
C -0.3381736 1.0604277 -0.016879478
C -1.1468732 -1.3557911 -0.007820918
N 1.2081492 -0.5671437 0.30971038
N 1.691393 0.6744036 0.19381963
H -2.1867938 -1.0768203 0.11569068
H -1.2615381 1.6214705 -0.03093911
H -0.8755278 -2.4012597 -0.08193266
H 2.68962 0.83584434 0.23034655
H -0.51023835 -0.052567843 -0.93440634
