11

C -1.30792 -0.7877628 0.68185264
N -0.12981072 -0.05227995 0.26398963
C 0.39756024 0.10099164 -0.9743746
C 1.4874853 0.9039188 -0.7676493
N 1.5693434 1.1922401 0.5556632
N 0.5936257 0.61453813 1.1730554
H -1.3634673 -0.70515144 1.767048
H -2.2046106 -0.35504183 0.23396395
H -1.2209427 -1.8387578 0.39691272
H -0.028964182 -0.35771865 -1.8520824
H 2.207701 1.2850236 -1.478379
