11

C -1.19395640 -1.37089831 0.23021097
N 1.15420167 -0.75785294 0.22378182
C -0.21850551 -0.47356866 0.09203547
C -0.33176409 1.00725771 -0.22982744
N 1.05630053 1.46321686 -0.26193004
N 1.70433907 0.39207962 0.00075568
H -0.88119722 1.57439034 0.53020027
H -2.23200867 -1.07927867 0.11005242
H -0.97286455 -2.40474045 0.46317045
H -0.80434318 1.20277107 -1.19925768
H 2.71979848 0.44662322 0.04080831
