12

O 1.0426884 1.0977135 -1.0118928
C 0.60118645 1.0154988 0.31803095
C -0.4467371 -0.088684745 0.44768408
O -1.4905773 0.18631873 -0.44731048
C 0.15614033 -1.435977 0.113719486
O -0.3290441 -2.1423154 -0.7356105
H 0.23668692 1.1361102 -1.5484012
H 0.16252525 1.9594537 0.6689193
H 1.4748951 0.7933797 0.94148344
H -0.8074372 -0.13143386 1.4889318
H -1.6405461 -0.64004844 -0.9379325
H 1.0402193 -1.7500151 0.70237863
