11

C 1.68227413 1.61545383 1.27054303
C -0.86559070 -1.16494885 0.04415506
C 0.53031334 0.97963621 -0.57147932
O 0.85220089 0.75168632 0.73029200
C -0.42405461 -0.10126530 -0.95807761
N 2.40887897 2.32731339 1.82109023
H 0.04537808 -0.54190318 -1.85181815
H -1.55924425 -1.86299380 -0.43315746
H -0.01243298 -1.73778812 0.42107248
H -1.37588194 -0.71498205 0.90182878
H -1.28184092 0.44979140 -1.37444880
