11

C 0.9060953 0.53708667 -0.6767845
C -0.5387159 0.804528 -0.41292807
C -1.3573561 -0.098856844 0.50607747
O 1.215608 -0.58860177 0.021218896
C 2.4643433 -0.9880971 -0.068506844
N 3.5413709 -1.4089175 -0.09538791
H -0.9702382 0.86881435 -1.4243413
H -0.54838127 1.8516577 -0.07197094
H -2.3877563 0.26319298 0.5647682
H -1.379543 -1.1292921 0.13756616
H -0.94542646 -0.111514114 1.5202891
