12

C 1.213063 -0.5015695 -0.95779383
C -0.73774713 0.32910666 0.21976176
N -0.008625799 0.04859991 -0.95073295
N -1.8751812 0.86611223 0.045935933
C -0.07226387 -0.044211414 1.5145693
O 1.5630277 -0.6126146 -2.2483764
H -0.49394867 0.30242717 -1.8116282
H -2.332321 1.0371256 0.938625
H 0.14849226 -1.115473 1.5378972
H 0.8806239 0.4828002 1.6200407
H 2.4435132 -1.0062168 -2.257095
H -0.72863233 0.2139137 2.3487966
