12

C -0.49931645 -1.2309239 0.50378454
C 0.5237187 -0.5357108 -0.35272485
N 0.41993085 0.8602065 -0.4091176
N 1.4654807 -1.0512378 -1.0373018
C -0.4885255 1.6037375 0.23771489
O -0.42952755 2.89669 0.061591767
H 1.4583358 -2.062868 -0.936627
H -1.2677438 2.3827891 0.7715005
H -1.509486 -1.0254776 0.13714145
H 1.0991446 1.3398252 -1.0010989
H -0.4483264 -0.86921114 1.535372
H -0.32368475 -2.3078187 0.4897648
