11

O -0.24648252 -1.7964352 -0.6900553
C -0.2583683 0.12998936 1.0193106
C 0.2564504 0.5749467 -1.0052872
N 1.2548102 1.0951985 -1.4093893
C -0.5880251 -0.49145803 -0.36516395
O -0.020736653 1.4548908 0.6145055
H -1.1051995 0.06460374 1.7123065
H 0.6693615 -1.9474702 -0.41591623
H 0.6221983 -0.36137626 1.4677178
H 1.0552977 1.6237655 -0.30761704
H -1.639306 -0.34665483 -0.6204112
