11

O -1.7984884 0.6530242 -1.6467937
C -1.1577091 0.027888285 -0.86725867
O -1.211703 -1.3146379 -0.6082415
C -0.21983029 -1.2398616 0.45620704
C -0.044702593 0.2360432 0.13838764
C 1.1271034 1.0997231 0.06655106
O 0.09047624 1.3006738 1.0256786
H 0.62719035 -1.8961344 0.25254402
H -0.6705475 -1.4575251 1.4263073
H 1.1878871 1.8514456 -0.7170992
H 2.0703235 0.7393608 0.47371736
