12

O 0.20880782 1.75776464 -2.50467408
C 0.79664924 1.52154092 -1.26730139
C 0.67900336 -0.49438142 0.09795109
N 0.77996213 0.10374155 -0.95018562
N -1.62213801 -1.25315464 1.47813074
C -0.45770756 -1.67552291 1.74760114
N 0.69366742 -1.20000046 1.11045119
H -0.70880579 1.47596533 -2.46447687
H 0.31715848 2.08676635 -0.45369193
H 1.83848857 1.83427946 -1.35795573
H -0.21536180 -2.43480143 2.49799671
H -2.30972392 -1.72219737 2.06615456
