9

O 0.99271095 1.2610551 1.1733279
C -0.75974226 -0.33381644 0.58862305
N -1.1383077 -0.8756576 -0.57475305
N 0.6952755 0.3420216 -0.9637515
N -0.20352727 -0.42578685 -1.5438486
C 0.3444836 0.4688342 0.31634998
H -0.3592081 -1.6156645 -1.2000161
H 1.7073965 1.6946927 0.6863892
H -1.2790813 -0.5156781 1.5176792
