9

O 1.41803855 -0.96410697 1.05627921
C -0.08013307 -0.70274688 -0.87758968
N -0.98019762 0.21333622 -1.21988077
N -0.94494502 1.07439471 -0.22592805
N -0.08883253 0.81212487 0.75887471
C 0.47053181 -0.31813139 0.35952994
H 0.13297555 -1.56020294 -1.49679898
H -1.52435731 1.89801959 -0.21176773
H 1.59691990 -0.45268733 1.85728117
