9

N 0.43869448 -1.3075465 -1.0771157
C -0.24986452 0.3674451 0.2530836
C -0.6109304 -0.574265 -0.73486066
N -1.2203496 1.1469562 0.70888144
N -2.048149 1.8146888 1.1038241
O 1.0023867 0.5377802 0.7809417
H 1.0002391 1.2587782 1.426284
H 0.3159045 -2.0192413 -1.7786407
H 1.372069 -1.2245955 -0.68239766
