9

N -0.8863555 -0.57656205 -1.2246335
C 0.23368064 -0.14678717 -0.5529761
C -0.05426953 0.36893556 0.7882833
N 0.95815146 0.80578506 1.4847858
N 1.8406727 1.1755457 2.084495
O 1.3468207 -0.15770815 -1.0416615
H -0.702381 -1.0920173 -2.0725527
H -1.7061651 -0.8460593 -0.70640856
H -1.0301545 0.46886772 1.2406688
