9

N 0.012156528 1.5485281 1.0343161
C -0.032202717 0.26497033 1.0644177
C -0.023165707 -0.6043647 -0.04702006
N 0.052451517 2.6779394 1.0951445
N 0.06695054 -0.38691613 -1.3611394
O -0.1193429 -1.7886094 0.44260627
H 0.06242692 -1.1737227 -1.9891257
H 0.12547763 0.5435197 -1.740877
H -0.1447518 -1.081345 1.5016773
