11

C 0.014366296 -0.0004648493 1.0719227
C -0.6737306 1.0632219 0.43991148
O -0.077811815 -1.196279 0.48145
C 0.31485745 -0.9210615 -1.0446246
O 0.65457916 0.33267155 -1.2107066
H -1.3843243 0.9260888 -0.36259812
H -0.59911394 -1.2470646 -1.5671788
H 0.85647124 0.5949684 0.4299542
H 0.282033 0.029376877 2.1292965
H 1.119271 -1.6578215 -1.1642591
H -0.5065977 2.0763643 0.7968324
