11

C -0.83903646 -0.1397661 -0.7123747
C 0.4036523 -0.9274356 -0.29191214
O 0.65751565 -0.42891267 1.0093211
C 0.3522924 0.9350686 0.922749
O -0.73637044 1.0661007 0.028850142
H -1.763091 -0.6586499 -0.43450016
H -0.860006 0.07825364 -1.7861693
H 0.24734367 -2.0058763 -0.23051241
H 1.2539896 -0.71744233 -0.95785636
H 0.06876778 1.2970957 1.9147635
H 1.2149425 1.5015647 0.53764135
