11

C -0.28676888 1.152525 0.38366282
C -0.23349673 -1.2159601 0.3601655
O -0.92413044 -0.025655517 0.6507455
C 0.83536685 1.3531882 -0.30539078
O -0.11449331 -1.4737916 -1.0009845
H -0.84310436 1.968619 0.83909464
H 1.3749623 0.55736834 -0.80429447
H 1.2153906 2.3658395 -0.3885577
H -1.0034478 -1.5317845 -1.3758156
H 0.78240407 -1.1543287 0.7613201
H -0.8026822 -1.9960188 0.8800545
