10

O -0.34587591 0.44554088 -1.20204882
C -0.23897036 -0.56869771 0.64234836
C -1.21878647 0.13088882 -0.15396831
O -0.75729206 0.71162864 1.05019736
C 0.74729990 -0.21882189 -0.48313152
O 1.79603183 0.60418748 -0.19015197
H 1.11971533 -1.06075217 -1.06860502
H -0.26484031 -1.39210963 1.34580503
H -2.28471687 0.05251476 -0.33255678
H 1.44743464 1.29562078 0.39211172
