10

O -0.57522625 0.67249995 -0.98990744
C 0.18725993 -0.5493953 -0.70912254
C -0.16696379 -0.3985933 0.7787052
O 1.5013138 -0.4756735 -1.0708512
C -0.86695075 0.7969819 0.37349
O 0.3315777 0.9098602 1.1158099
H -1.7473557 1.3384793 0.6989307
H 1.8919718 0.23511004 -0.5409417
H -0.267275 -1.3976341 -1.2231342
H -0.28835168 -1.1316351 1.5670214
