10

O -0.12398019 -1.1850829 -1.0810649
C -0.0652536 -0.47944528 0.116793826
C -1.3127106 0.37415132 0.3301607
O -1.4837462 1.0062989 1.3404548
C 1.1440569 0.4420715 0.14513712
O 1.9299833 0.45213997 -0.77136904
H 0.670257 -0.9287464 -1.5784645
H 0.0227546 -1.1507152 0.9864411
H -2.0231853 0.37792015 -0.52023536
H 1.2418238 1.0914079 1.0321463
