10

O 0.12073527 0.75885284 -1.3327317
C -1.1442102 -0.45463344 -0.26427153
C 0.5597152 -0.026536817 0.8315409
O 0.9551475 1.2041354 0.9012671
C 0.25944775 -0.41519287 -0.67421764
O -1.1468436 -0.1375788 0.97088593
H -2.0537727 -0.4977367 -0.85900897
H 0.8965779 -0.70108 1.616074
H 0.7420969 1.5148035 -0.06055512
H 0.81110585 -1.245033 -1.1289827
