10

O 0.92166168 -1.17360778 1.08335428
C 0.16547806 -0.45720834 0.17031895
C 0.74997032 0.89278084 0.03572025
N -0.56369776 2.69567977 -0.90134002
N 0.05285836 1.85220368 -0.46747846
C -1.18788716 -0.79140947 -0.17039843
N -0.34421811 -1.16801806 -1.03861491
H 0.69678816 -2.10974970 0.99107109
H 1.77033747 1.10218735 0.31909176
H -2.26129072 -0.84285793 -0.02172459
