10

O -1.8161147 -0.18224722 0.32401514
C 0.14290445 0.9955359 0.8646415
C -0.52887106 0.056117255 -0.03549884
N 1.4354004 0.93646216 0.67604023
N -0.2256644 -0.21304274 -1.3856992
C 0.5614585 -0.95390886 -0.66602635
N 2.077899 0.12849678 0.0791806
H 1.0073384 -1.885591 -1.0095109
H -2.2976873 -0.44901192 -0.47489783
H -0.35666347 1.5671898 1.6277559
