10

O 0.06460309 -1.8378459 -0.13645847
C 0.5725252 0.26591238 -0.9809661
C -0.16356084 -0.48528275 0.05638727
N 1.0317749 2.621913 -0.67666173
N 0.8133575 1.5214533 -0.8219598
C -0.5994161 0.07285019 1.3045435
N -1.5333972 -0.048763476 0.45583814
H -0.5943987 -2.329462 0.37292963
H -0.486056 0.41876274 2.326522
H 0.8945683 -0.1995375 -1.9001746
