12

O 0.872611 1.9659848 -1.2789093
N 1.0090314 1.4130121 -0.0043009715
C 0.3130382 0.36366048 0.10387815
C 0.13517736 -0.6096679 1.2429584
N -0.56322634 -1.5131662 0.2966674
C -0.5865233 -0.47868165 -0.770889
H 1.4662575 2.7252595 -1.2419493
H -0.49000674 -0.2174041 2.0555122
H 1.0511626 -1.0308353 1.6670572
H -1.4841477 -1.7956666 0.6092385
H -1.5644884 -0.016073594 -0.95608324
H -0.15888557 -0.80642176 -1.7231798
