12

O 1.0557241 1.590331 -1.7045763
N -0.3558911 -0.84583783 1.2002773
C 0.8329459 -0.2232402 0.58803767
C -0.017536798 0.13292706 -0.6836371
N -0.043297336 1.4421648 -1.0421082
C -1.1957785 -0.52836895 0.015162412
H -1.5763662 -1.4341233 -0.4669922
H 1.1083435 0.32578346 -1.6318741
H 1.6362034 -0.9439932 0.40747035
H -0.6574758 -0.33203256 2.0156374
H -2.029056 0.15683477 0.20664138
H 1.2421849 0.65955526 1.095961
