9

N 1.40431130 0.48487824 0.99305500
C 0.12310794 0.29250595 0.83544749
C -0.39277456 -0.18597258 -0.43751183
N -1.60109412 -0.42780938 -0.74174705
N 2.50804410 0.65520384 1.13662286
O 0.57992005 -0.37852289 -1.35417506
H 0.12159426 -0.69747707 -2.14634640
H -0.50260718 0.50442520 1.68782679
H -2.24050165 -0.24723155 0.02682849
