12

C -0.105826534 -0.30358788 0.16535622
C 0.2478273 1.142262 0.26448202
C -0.03344989 0.50727576 -1.0844439
O -1.3412434 -0.75135034 0.63411313
N 0.9304673 -1.2548956 0.393598
H -0.9668451 0.76194835 -1.5806402
H -0.49759457 1.8215033 0.672995
H 1.0091856 -1.4408958 1.3893881
H 0.6889647 -2.1316097 -0.061040506
H 1.2748871 1.3959092 0.49695295
H -2.015578 -0.0877695 0.45468774
H 0.80920565 0.3412104 -1.7454484
