12

C 0.23502581 0.65900517 0.005578564
C -0.21215153 -0.52765644 -0.7662647
C 0.08694932 -1.4673549 0.38286486
O 1.4563657 0.74723 0.5075544
N -0.5338308 1.716672 0.20807834
H 0.44820288 -0.6652386 -1.6313995
H -1.4413359 1.7866828 -0.22428589
H 0.6675968 -2.3434238 0.09451563
H -0.78901654 -1.6953897 0.9842379
H -0.24374574 2.4286845 0.860882
H -1.246647 -0.4043192 -1.1263452
H 1.5725869 -0.23489185 0.7045834
