10

N 0.27213165 -1.4091748 -1.7548472
C 0.71044207 0.63901234 1.0649167
C -0.69556904 0.35794553 1.1223959
C -0.08362785 0.6692947 -0.29997644
C 0.10570655 -0.42649958 -1.0739651
H -0.30962116 1.6101391 -0.7940022
H -1.3985423 1.1674308 1.3425217
H 1.3257403 -0.26755646 1.1399738
H -1.1341043 -0.6339351 1.2662878
H 1.207444 -1.7066565 -2.0133052
