12

C 0.97326815 -1.2775764 0.99142873
C -0.6761928 0.319395 -0.037210796
O 1.947016 -1.0887185 0.3023303
N -1.8789389 0.6998326 0.11929984
C 0.3104803 0.79508615 -1.068305
N -0.24366525 -0.6577098 0.8745264
H -0.1619892 1.5443742 -1.7029781
H 0.66287714 -0.040404756 -1.6794709
H 1.1917037 1.2258427 -0.5840982
H -2.1271214 1.4042393 -0.5705751
H 0.97240233 -2.0052025 1.825644
H -0.96984035 -0.91915816 1.5294092
