12

C -1.4914398 -1.0767791 -0.9771188
C 1.1338406 0.8372532 0.9118179
O 0.6952027 -0.7692545 -1.3302034
N -0.11526618 0.40311632 0.4739088
C -0.29542822 -0.42376766 -0.58168143
N 1.1972136 1.6262436 1.8991319
H -0.19675024 -1.5741544 -1.6511158
H -1.8751812 -0.71339154 -1.9289649
H 2.1701834 1.8438982 2.103863
H 1.9526557 0.42664006 0.31782827
H -2.2561142 -1.301426 -0.23440446
H -0.91891617 0.721622 0.99693894
