10

N -0.37354043 1.1866419 0.8253386
C -0.30943543 -0.9902557 0.83871305
N 0.21125323 -0.6976704 -0.3135764
O -0.6823774 0.024863934 1.5844346
C 0.15083195 0.6742135 -0.25936875
O -0.5101957 -2.1930773 1.3502622
N 0.6637414 1.4363378 -1.271555
H 0.37372202 2.401151 -1.277581
H -0.18281363 -2.8270845 0.6957886
H 0.6588141 0.9848798 -2.1724563
