10

C 0.57228184 -0.50714934 1.083849
C 0.954648 -0.34177205 -0.40248597
N -0.530023 0.051905617 1.4281163
C -0.5157381 0.22563556 -0.8947894
C -1.0668511 0.6489337 0.33776203
N 0.22823986 -0.9705222 -1.2889221
H -0.84809613 0.7687042 -1.7877504
H -1.849937 1.3938434 0.4365919
H 1.9893581 -0.02122474 -0.61966276
H 1.0661174 -1.2483541 1.7072917
