10

C 0.525454 0.84771526 -1.6208395
N -0.13228644 0.77081907 0.64541584
N -0.27701035 -1.5566427 0.5711687
C -0.44032115 -0.38431212 1.444984
N 0.1632339 0.2723634 -0.50449264
N 0.06778531 -1.20076 -0.54603916
H 0.72515357 0.21366021 -2.4730918
H 0.23392631 -0.4994494 2.3008745
H -1.4708552 -0.38805628 1.8174301
H 0.60492015 1.9246625 -1.6354103
