10

O 1.14927263 1.51620174 1.21132026
C -0.15551596 -0.86439057 -0.96974839
C 0.97702371 -0.08173937 -0.65333810
C 0.67139230 0.69191208 0.46893859
N -1.22689296 -0.75612005 -0.22782803
N -0.80805547 0.24102027 0.75306327
H -0.88330741 -0.15801119 1.68923563
H -0.20749412 -1.56472580 -1.79894032
H 1.92188898 -0.06613064 -1.17415067
H -1.43831174 1.04198357 0.70144797
