11

O 1.6820213 0.661453 -0.5145913
C 0.76136106 -0.048168737 0.25078967
C -0.33823505 0.6915142 1.0440823
O -1.3523198 -0.14316753 0.4141353
C -0.42273283 -0.6843621 -0.4406922
N -0.5566541 -1.3728279 -1.4805201
H 1.2610736 0.90196115 -1.3502582
H 1.3138152 -0.7599557 0.8714909
H -0.34847337 0.5731391 2.1292202
H -0.46036398 1.7393762 0.75610375
H -1.539492 -1.5589614 -1.6797602
