10

O 0.06415247 -1.4480788 1.6613417
C 0.038252547 -0.47478127 0.73920655
N 0.13705315 0.803158 0.9516731
C 0.057305258 1.3638477 -0.31160554
C -0.089613855 0.40564927 -1.2648911
N -0.10152842 -0.7984756 -0.5671492
H 0.16307735 -0.9994598 2.5124626
H 0.11150415 2.4346526 -0.44679296
H -0.18538353 0.4437426 -2.3389027
H -0.19481911 -1.7302547 -0.9353422
