10

O -0.19501326 -0.13268323 -2.03353671
C 0.14939828 0.26061927 1.46263459
N 0.05637408 -1.04816509 1.32960084
C 0.07689319 0.94121656 0.22236798
C -0.06917672 -0.07816028 -0.69137792
N -0.07737685 -1.23652369 -0.00100318
H 0.26760741 0.69167406 2.44771313
H 0.12490895 2.00313367 0.02909031
H -0.16035209 0.76417596 -2.38678992
H -0.17326297 -2.16528723 -0.37869887
