11

C -0.20147811 0.71539314 -0.71963839
C 1.10190653 0.99740254 -0.08500379
O -1.58105431 0.10728986 0.70378784
C -0.80899361 -0.59085681 -0.29284685
C -0.00664110 -1.61668377 0.38994692
N 0.67705145 -2.42308760 0.86196394
H 1.24983291 2.06595746 0.08656750
H -1.43261009 -1.08164315 -1.04770089
H -2.18031508 0.69819439 0.22275118
H 1.78901535 0.72620279 -0.90843550
H 1.39328610 0.40183150 0.78860815
