10

O 0.021727327 0.3247581 2.0210316
C -0.023967015 0.11937543 0.6885089
C 0.89177513 -0.28630054 -0.25621587
C 0.1432355 -0.2805317 -1.4600832
N -1.1097239 0.09275386 -1.2774545
N -1.1910414 0.33381838 0.049172636
H 0.9141568 0.13948072 2.336692
H 1.9283587 -0.5470957 -0.10475435
H 0.4845643 -0.5393789 -2.4533615
H -2.0590858 0.6431204 0.45646438
