11

C 0.2120314 -0.044652365 0.8306386
N -0.8744734 0.5611184 0.9626277
C -1.6976337 0.91014355 -0.17885585
O 0.70786524 -0.43736234 -0.40895495
C 1.89588 -1.0729077 -0.4621335
O 2.5917063 -1.3374075 0.4784268
H -2.6797624 0.44782186 -0.043122683
H -1.8420572 1.9933645 -0.17379658
H 2.1204813 -1.3090968 -1.5130509
H -1.2898741 0.6076614 -1.1517627
H 0.85583687 -0.31868297 1.6599842
