11

C -1.41335721 1.14130737 0.66494354
N -0.37359684 0.36813886 1.31571612
C 0.44776038 -0.31257355 0.66235944
O 0.42330930 -0.38987559 -0.72691772
C 1.35631498 -1.13532312 -1.35296349
O 2.23447765 -1.75287542 -0.81794241
H -1.29859778 2.18523617 0.96709300
H 1.24068043 -0.89980536 1.11383367
H -2.38013933 0.79521450 1.04216187
H 1.17725990 -1.08302916 -2.43733568
H -1.41411148 1.08358542 -0.43094820
