10

C -0.13333434 0.020477587 0.14830312
C -0.28000146 -0.539815 -1.1735666
C -0.4228892 -1.0120363 -2.267297
C 1.153845 0.5513603 0.52331996
N -1.0743381 0.07720685 1.0312871
N 1.0378157 1.000142 1.7659222
N 0.16415884 1.0437106 2.531471
H -1.9645755 -0.309935 0.72617704
H 2.068289 0.60192746 -0.044724025
H -0.54897016 -1.4330382 -3.2408924
