12

O -0.3211004 -1.9854208 -0.86876446
C 0.14402251 0.31326735 -0.56413406
C 0.620432 -1.113438 -0.59374267
O -0.25672448 0.32657441 1.7993153
C 0.4962554 0.9471264 0.78668183
O -1.2504625 0.38234437 -0.73162985
H -1.1718981 0.34903333 1.4869655
H 0.6754658 0.84490436 -1.3692367
H -1.5434151 -0.51455617 -0.9737986
H 0.30149725 2.026983 0.7288323
H 0.752429 -2.3689609 -0.71186167
H 1.5534986 0.7921428 1.0113729
