9

O -0.25386574 -1.19562235 1.75650120
C 0.78755042 0.43413177 -3.75357290
C 0.11837458 0.27225274 -0.11141369
C 0.33575763 0.32614669 -1.28900592
C -0.17935020 0.14152784 1.32246251
N 0.57666407 0.38610457 -2.59284619
H -0.90502499 -1.66035032 1.21790038
H -1.10403797 0.69672256 1.54302896
H 0.62393245 0.59908646 1.90694561
