9

O 1.9868237 -0.14542757 1.0152421
C 0.93754363 -0.1048397 0.41073194
N -0.2733201 0.48128697 0.78524876
N -0.68415296 -0.37803766 -1.2057755
N 0.60837895 -0.61629534 -0.8254204
C -1.1900747 0.28370622 -0.21941657
H -0.40308446 0.96477157 1.6572263
H 1.2264051 -1.1245579 -1.4336128
H -2.208519 0.6393933 -0.18422352
