12

C 0.2010375 -0.2556489 0.9533773
C 0.39412367 0.14926106 -1.1855438
N 1.0640597 0.5842112 0.034950994
N -0.9203633 0.31890866 -1.0868506
C -1.214881 0.3204785 0.30017212
O 0.32189783 -1.507109 0.6420536
H 0.90618455 0.27835205 -2.141433
H -2.0883145 -0.29753616 0.5068725
H -1.3413336 1.3163677 0.7302372
H 0.31466335 0.03319647 2.0062528
H 0.37649545 -1.1016915 -0.79742527
H 1.9864303 0.16121024 0.03733641
