12

C 1.0737284 0.19299775 0.781772
C -0.31606644 0.5932755 0.3479856
N -1.0166328 1.5496593 0.8087807
N -0.9062549 -0.17068104 -0.66838735
C -0.39327127 -1.2486264 -1.3422655
O -1.0002533 -1.8412024 -2.207777
H 1.4158572 0.86152047 1.5760128
H 1.7849705 0.2553971 -0.049019545
H 1.0898232 -0.83167 1.1682336
H -0.514187 2.0476453 1.5396392
H -1.8423749 0.12247439 -0.9275609
H 0.62466127 -1.5307903 -1.0274137
