12

C -0.8854588 -0.03769148 1.1263186
C 0.29916152 0.04542609 -0.90319186
N 0.2155516 -1.0046194 1.2122583
N -0.689099 0.7320742 -0.10088902
C 0.8361309 -0.9529847 0.11105237
O 1.2819443 0.89992124 -1.4274116
H 1.7138813 -1.5657943 -0.09236129
H 1.5989858 1.4350044 -0.68661195
H -1.5457846 0.91714466 -0.6037694
H -1.828103 -0.6014149 1.1259941
H -0.8739219 0.6027336 2.0148506
H -0.123288155 -0.46979913 -1.7762394
