11

O 0.8901109 0.07428457 -1.6476629
C -1.222187 0.0500728 -0.5852933
N 0.6273911 -1.1308547 0.15043737
C 0.012907272 -0.5938759 -0.9706489
C 0.4604653 0.0578571 0.9604696
C -0.8911454 0.50255877 0.6587288
H -1.4561568 1.1956522 1.2707105
H 1.6023462 -1.303664 -0.07177834
H 1.1471318 0.7083017 -0.50179094
H 0.8331451 0.04618888 1.9845891
H -2.0040083 0.3934783 -1.247761
