11

C 0.7911055 0.30187926 0.8099231
C -0.076876365 -0.7588722 0.10372216
N 0.29734302 -1.2288007 -1.2047569
C -0.5786984 0.5977546 0.34786603
N -1.5061672 1.4079628 0.09094448
H 1.6249788 0.73010933 0.2552813
H -0.43025434 -1.5579857 0.7522746
H -1.2602599 2.3442624 0.42645404
H -0.5376618 -1.5275683 -1.7032444
H 0.68965495 -0.46679422 -1.7481602
H 0.9868357 0.1580526 1.8696959
