11

C -0.52524436 1.0415478 0.54317886
C -0.07589705 -0.048540585 -0.4312788
N 1.3767797 -0.14683677 -0.44723883
C -0.72069734 -1.3461338 -0.1036933
N -1.1611654 -2.380719 0.16268429
H -1.6126294 1.1580876 0.5327098
H -0.21787548 0.79576206 1.5657489
H -0.05845579 1.9874871 0.2569404
H -0.40175125 0.22417088 -1.4407717
H 1.6822755 -0.85563177 -1.1052058
H 1.7146609 -0.42919344 0.46692625
