11

C 0.1048816 -0.53198725 -0.35049424
C 0.43863374 1.0050433 -0.38124365
N -1.2570575 -0.9149162 -0.5930076
C 0.594227 -0.21184859 0.971059
N 0.97223 0.10637422 2.0867999
H -1.8954078 -0.3376652 -0.061080705
H 0.9242699 1.0509855 1.1977599
H 0.7984177 -1.1252997 -0.943617
H 1.2122282 1.2559215 -1.1065837
H -0.4777776 1.5872543 -0.4799152
H -1.4146453 -1.8838619 -0.33967644
