12

N -0.51540486 -0.00559124 0.81104296
C -0.11838390 -1.29388092 0.65767628
N -0.09760188 1.96125422 -0.56456634
C 0.05741889 0.52209264 -0.26624247
O -0.46552286 -2.25489549 1.55072313
C 0.65085447 -1.44874636 -0.48541795
N 0.75973096 -0.21502370 -1.08879306
H -1.07430508 2.21941240 -0.71718399
H -1.01046147 -1.82187831 2.22058462
H 0.25978520 2.54807726 0.19180396
H 1.11226617 -2.33985080 -0.89089484
H 0.44162401 2.12903058 -1.41873246
