12

N -0.47087085 0.12679385 1.0287868
C -0.44976383 0.41446173 -0.25662264
N -1.1775484 1.2267017 -1.2059401
C 0.58809674 -0.73239136 1.0993521
O 0.9498008 -1.2937565 2.27477
C 1.1993732 -0.92599326 -0.13192427
N 0.48402157 -0.14909483 -1.0154387
H 0.33995914 -0.95228666 2.9422872
H 2.0437167 -1.5373766 -0.41049942
H -1.1279105 2.2302935 -1.0475824
H -2.1391747 0.94440126 -1.3782644
H -0.23969984 0.6482471 -1.898924
