11

C -0.9905106 0.8916105 -0.11726916
C 0.059910104 -0.19514982 -0.17308047
C 0.6768319 -0.7385766 1.0459082
O -0.31359267 -1.464532 0.3354847
C 0.8402153 -0.24496374 -1.4076828
N 1.4478104 -0.24723797 -2.3900583
H -1.7206059 0.75980973 -0.9204506
H -1.5129874 0.8448267 0.8421535
H -0.5304429 1.8784889 -0.22628124
H 1.6808226 -1.1556981 1.0070293
H 0.3625491 -0.3285777 2.0042467
