9

O -2.30608121 0.85085559 -0.21269948
C -0.54404838 -0.31683660 0.88196998
C -1.16322961 0.48048488 -0.18774538
N 0.68178133 -0.69996120 0.85805721
C 1.40125258 -0.30534422 -0.26488437
N 0.99239956 0.39122358 -1.26046723
O -0.32919918 0.80453336 -1.22226593
H -1.17142518 -0.58754960 1.72716433
H 2.43855046 -0.61740596 -0.31912901
