9

O 0.33303723 -2.4916592 -1.6081257
C 0.08841168 1.3687227 0.93451875
C -0.28233606 -0.630613 -0.10259252
N -0.17269872 0.11583895 0.9789193
C 0.041548535 -1.691986 -0.784366
N 0.24695945 2.044414 -0.31025532
O 0.27804548 1.247815 -1.2370754
H -0.6465632 -1.9330305 0.2924504
H 0.11359564 1.970498 1.8365265
