11

C 1.1118741 1.1760851 -1.0701298
C -0.30467963 -0.61956567 -0.21152969
O 1.0252302 -1.0438467 0.25596857
C 0.6222117 -0.15155518 -1.2695833
C -0.9502778 0.27121815 0.8162914
N 1.53056 2.25845 -1.0897974
H -0.9183253 -1.4813753 -0.4822378
H -0.23208678 1.0019975 1.194732
H 1.2403402 -1.9028133 -0.13897909
H -1.3445333 -0.31898442 1.6480778
H -1.7803133 0.81038976 0.34718707
