11

C 0.45578206 1.3985673 1.17165
C -0.6078529 1.158264 0.23756647
O 0.077536725 0.77796686 -1.3062261
C 0.24690686 -1.2958843 -0.011511424
C -0.6341488 -0.15509792 -0.44248703
N 1.2308085 1.6664084 1.9886467
H 0.39163643 -1.9975783 -0.8363735
H -1.5910017 -0.45513386 -0.8738115
H 1.2208214 -0.92747027 0.32189655
H -0.5605697 1.6585382 -1.067468
H -0.22991875 -1.8285803 0.81811786
