11

C -0.8232181 0.74527377 -0.83442277
C 0.5001565 0.62585413 -0.12937644
O 0.49275115 0.6828445 1.2899557
C 0.8703276 -0.54243803 0.6885417
C -0.052741878 -1.6557035 0.854495
N -0.77103615 -2.55337 0.9643178
H -1.1561152 1.7878386 -0.83259684
H -0.7259051 0.41980672 -1.8755206
H -1.587476 0.13678436 -0.34497377
H 1.334748 1.1666774 -0.57818365
H 1.9185092 -0.81356764 0.7977637
