12

N 0.53514856 -0.653302 -2.0754993
C -0.7323113 0.9612257 0.68119353
N 0.44784042 -0.7840568 0.32060206
C 0.47380173 0.3231713 1.3222494
C -0.71377766 -0.45491135 1.1965033
C 0.11863712 -0.09684788 -0.9170405
N -0.5907007 0.9584034 -0.76707214
H 1.1920917 0.48598975 2.115387
H 1.284811 -1.326407 -2.0169787
H -1.2522867 -1.1134342 1.8650774
H -1.3011713 1.7499667 1.1587929
H 0.5379171 -0.04979795 -2.8832152
