12

N 0.42451495 -1.0515428 -0.50202566
C 0.2871245 1.3586705 -0.22195145
N -1.7139509 -1.5534881 0.3184089
C 1.2680697 0.036696285 -0.39330146
C 1.2611881 1.0891182 0.66358286
C -0.7129446 -0.66072863 0.050414614
N -0.81652325 0.6068626 0.41138706
H -2.631841 -1.1565353 0.44721583
H 2.2053626 -0.033202495 -0.9432248
H 2.0046215 1.5876374 1.2689078
H -1.6573247 -2.4147813 -0.19804862
H 0.08170275 2.1912935 -0.90136504
