12

N -1.5235618 -1.1014087 -1.3421035
C -0.61968327 -0.4514081 -0.55390674
N -0.69086033 -0.69536513 0.76586473
C 0.2194479 -0.0903632 1.5145441
C 1.1942375 0.7552626 0.9948302
C 1.156861 0.9378942 -0.3826014
N 0.26221415 0.35050207 -1.1699911
H -1.6477575 -0.7510528 -2.2782917
H -2.3210483 -1.5048075 -0.87776446
H 0.16605921 -0.28298846 2.5849495
H 1.9305906 1.2424695 1.621597
H 1.8735006 1.5912656 -0.8771266
