12

N 0.35044843 -0.60121552 -2.12993203
C -0.06175237 -0.21884659 -0.90150448
N 0.93695179 -0.13212143 0.15085419
C 0.15864535 -0.49311674 1.37102538
C 0.36008468 0.88702078 1.07740637
C -1.02018363 0.31141414 0.88685175
N -1.25790381 0.03472149 -0.52185875
H -0.27887747 -0.40250824 -2.89222732
H -1.85556712 0.56825686 1.52714970
H 0.45890325 -1.13706356 2.18699924
H 0.87313995 1.70005656 1.57466354
H 1.33611071 -0.51659769 -2.32942754
