14

C -1.4419165 -0.7629884 1.2076633
N -0.15262249 -0.07396237 1.2324119
C 0.432687 0.20043786 -0.0074229403
O -0.07120013 -0.43193403 -1.217386
N 0.602082 1.5380406 -0.68924624
C 1.0925467 0.42680272 -1.5262591
N 1.8558843 -0.06934986 -0.37018055
H -1.3193128 -1.7298918 0.710647
H -0.2934707 1.8732656 -1.0519935
H 1.4319772 0.49367097 -2.558912
H -0.14910977 0.7603951 1.8068188
H -1.7587236 -0.9402525 2.238162
H 1.9978868 -1.0784262 -0.4499259
H -2.226708 -0.20580776 0.67562294
