14

C -0.41707743 0.56669368 1.77680712
N -1.23935982 1.28753129 0.76276725
C -0.27104129 0.37406409 0.14122436
O 0.77840316 0.85486726 1.02387320
N -0.02335641 0.29713902 -1.23283558
C 1.06029347 -0.60372763 -1.60006036
N -0.63406411 -0.72976111 1.10343954
H 0.18038832 -1.32641897 1.27525003
H 0.84180313 -1.65755035 -1.38271436
H -2.17411429 0.87432470 0.75166631
H -0.87526695 0.14790161 -1.75079696
H 1.25192480 -0.49703371 -2.66643187
H -0.44488676 0.73340310 2.85581936
H 1.96635451 -0.32143296 -1.05800812
