14

C -2.3937824 -0.07500848 0.96972823
N -1.3510263 0.13414703 -0.0154968845
C -0.03677313 0.037802108 0.3472488
O 0.35306415 -0.07368956 1.4950478
N 0.8421608 0.10490345 -0.73357034
C 2.2151477 0.0025239217 -0.5890332
N 2.963824 0.1077556 -1.6120514
H -2.0363986 0.29535076 1.930285
H -2.653105 -1.1357352 1.078266
H -3.2861655 0.48395425 0.67762834
H -1.5941515 -0.021549253 -0.9807587
H 0.5169269 0.3016273 -1.6704426
H 2.5230632 -0.16907392 0.44423398
H 3.937216 0.006992011 -1.3410851
