10

O -0.541842 -2.2130036 -0.8580419
C -1.4468275 -1.428328 -0.6910072
C 2.0293987 1.0761786 0.8363718
N 1.0784682 0.90526134 -0.18907931
O 2.0278811 2.0080814 1.5890764
C -1.2750882 -0.012505941 -0.3183563
C -0.050617494 0.472465 -0.20373328
H -2.5037432 -1.7381862 -0.8197298
H -2.1278622 0.6325416 -0.1425578
H 2.8102322 0.29749608 0.79705745
