10

O -1.4053761 1.8011765 -0.35581267
C -1.1686031 0.8930337 -1.1446729
C 1.3406293 -0.7516751 1.1705774
N -0.14652006 0.55229837 1.563143
O 1.3581274 -1.8280479 1.6633668
C -0.38323167 -0.26310456 -0.7889897
C -0.04687019 -0.12258389 0.5426945
H 2.1769779 -0.08485117 0.93920815
H -0.14237566 -1.1022772 -1.4213786
H -1.5827578 0.90603113 -2.168136
