11

N 2.0154057 0.71107656 0.4807006
C 0.83272654 0.48212576 0.1345516
C 0.39444357 -0.49727455 -0.9117125
C -1.6344554 -0.57463044 0.40293556
C -0.9105866 -1.1724654 -0.6930077
N -1.4193765 0.5987058 0.9283295
O -0.21678895 1.2030602 0.7105745
H 2.0636995 1.4342896 1.2023726
H -2.578161 -1.0038043 0.72295874
H 0.2559103 0.03335987 -1.872188
H 1.1971833 -1.2144426 -1.1055152
