11

N -1.59296530 0.05752238 0.83308263
C 0.57992464 0.09327250 -0.94290780
C -0.71319954 -0.48231144 -1.39385261
C -1.65532730 -0.57536270 -0.30471486
C 0.77128257 0.25043013 0.53515482
N 1.85673435 0.14621202 1.15313591
O -0.39753739 0.58281541 1.22538053
H 1.43439826 -0.43829928 -1.37137816
H 0.60264880 1.09026308 -1.42120785
H -2.62343938 -1.03720417 -0.46795320
H 1.73748046 0.31266205 2.15526004
