11

N 2.0006535 0.5706703 -0.9306973
C 0.56706136 -0.7192598 0.49728167
C -1.7208127 -0.20959145 0.25088447
C 0.83592033 0.35561237 -0.49065417
C -0.7251886 -1.1283544 0.851925
N -1.5301663 0.7802516 -0.53780335
O -0.233056 1.1072227 -0.89682704
H 0.12648481 -0.43044743 1.6270438
H -2.7744594 -0.36472598 0.45946047
H 1.4495858 -1.2909856 0.7817786
H 2.0039773 1.3296076 -1.6123922
