11

N 0.9663163 0.46275163 -2.1405265
C 0.57775855 0.24124788 -0.9587631
C -0.8009198 -0.12011712 -0.6436304
C -1.1513286 -0.34174857 0.6266026
C -0.12362523 -0.20820089 1.6394796
N 1.0984688 0.10744974 1.4169681
O 1.463131 0.33403426 0.10301634
H 1.9580926 0.7012481 -2.1622849
H -1.4800284 -0.18980351 -1.4844452
H -2.1616175 -0.61120516 0.9151183
H -0.34624755 -0.37565637 2.6884646
