14

C -2.392328 -0.07821061 0.97073334
N -1.3524408 0.13599037 -0.0151385935
C -0.033847682 0.037135873 0.34493825
O 0.35218126 -0.078939915 1.492904
N 0.84292465 0.10874685 -0.7324309
C 2.2159915 0.004220511 -0.5907297
N 2.9640746 0.11259963 -1.6120136
H -2.0377688 0.29609954 1.9311556
H -2.6487126 -1.1391547 1.0840685
H -3.287375 0.47676608 0.67724144
H -1.5940999 -0.021156676 -0.9802775
H 0.5167721 0.3078003 -1.668684
H 2.5172696 -0.17040677 0.44249183
H 3.937359 0.008509578 -1.3442588
