14

C -0.20822349 -0.14381306 0.23452552
N 0.04747745 -0.8337187 -3.270231
C 0.20101622 0.7913778 2.450487
O -1.2446824 -0.67804796 0.5807896
N 0.62062836 0.534494 1.0866532
C -0.4455233 -0.7997431 -2.099522
N 0.25620928 -0.18935749 -1.0762035
H -0.44635084 -0.028259162 2.7636456
H 1.3254876 1.1316684 0.6871284
H -1.402872 -1.2043116 -1.7692358
H -0.35791558 1.7303162 2.5414007
H -0.5887699 -1.3111238 -3.901465
H 1.0777076 0.8281418 3.1013932
H 1.1658108 0.17237686 -1.3293662
