9

C 0.11087846 0.7076984 0.47080323
C 0.28212228 1.5655539 -0.7258221
C -0.10704682 -0.5843996 0.37578368
C -0.32331705 -1.8643012 0.291856
O 0.23717651 1.1784045 -1.8707986
H 0.46307883 2.6356509 -0.48775044
H 0.50222594 -2.569949 0.27471042
H -1.3358357 -2.254705 0.22413418
H 0.17071758 1.186047 1.4470837
