11

N 0.83259934 -0.90255782 -1.00351557
C -1.42410313 0.07942816 1.10727339
O 0.34454822 0.08789353 1.42850903
C -0.35390766 0.75667617 0.32115569
C 0.10290666 0.24221493 -1.02350106
O -0.24351011 0.81786736 -2.03862246
H -1.47122364 -0.94120073 0.68104217
H 1.12369518 -1.33560314 -0.14536478
H 0.30411442 0.67042148 2.20053382
H -0.28878249 1.84389043 0.36104895
H 1.07366335 -1.31903043 -1.88855961
