9

O 0.9402098 0.4519263 1.7942183
C -0.10808164 -1.6098765 -2.495323
C 0.0040446 0.077674344 -0.38405603
C -0.09032025 -0.699144 -1.3065003
C 0.1276081 0.97413695 0.77357423
N -1.1660788 -1.9127482 -2.016923
H 0.5877264 -0.4089446 2.0494237
H 0.5916971 1.9120178 0.45613396
H -0.8868054 1.2149578 1.1294516
