9

O -0.57751825 0.55411261 1.97988742
C -0.38689595 -0.56913449 1.15287819
C -0.04777784 -0.21712581 -0.23413946
C 0.25694590 0.12728437 -1.34274608
C 0.89110241 0.85047528 -3.65491751
N 0.59326540 0.50716218 -2.56609953
H -1.33260798 -1.11864162 1.17348817
H 0.21283956 1.10609284 1.94298230
H 0.39064691 -1.24022526 1.54866667
