11

N 1.0392236 0.13152991 1.7673186
C 0.37329462 0.05945825 0.53948885
C -0.9709396 0.1279679 0.27264544
N -1.0555085 0.06454341 -1.1116011
C 0.20746773 -0.025620444 -1.5860933
N 1.0960013 -0.037754845 -0.6212573
H 2.010069 -0.12529781 1.6468207
H 0.6167339 -0.427201 2.4955142
H -1.8436619 0.2276113 0.8991965
H -1.8997946 0.086174935 -1.6570834
H 0.4271146 -0.08141157 -2.644949
