11

N -0.01512657 1.28234084 0.55049654
C 0.82483477 0.46001759 1.08575472
C -0.69224324 0.53277327 -0.44089491
N -1.63626531 0.91570489 -1.18655923
C -0.10235917 -0.87772060 -0.48899609
N 0.80703494 -0.83328906 0.64852982
H 1.51131577 0.74954409 1.87596849
H 1.61681767 -1.42710567 0.72824411
H -0.87706918 -1.64019792 -0.36921237
H -1.86573433 1.88399456 -0.97146089
H 0.42879478 -1.04606196 -1.43187000
