11

O -1.2729584 -0.18110831 1.9346969
N -1.1682515 -0.7663463 0.6680691
C -0.23679972 -0.23035719 0.007505187
C 0.29803148 -0.46522623 -1.3795998
O 1.2577627 0.58777106 -1.1705829
C 0.79254764 0.85815555 0.16527566
H -2.010274 -0.669878 2.3215232
H -0.3921982 -0.24568443 -2.2018294
H 0.773501 -1.4388704 -1.5476568
H 1.5622759 0.6778276 0.9254129
H 0.3963632 1.8737168 0.27718607
