10

O 0.37664163 0.44271725 2.0615387
C -0.08243258 0.1983047 -1.3627048
N -0.31577712 -1.0557301 0.40308285
C 0.16164923 0.22973955 0.7647262
C -0.50225973 -1.1878618 -0.9100376
N 0.32210565 1.0147982 -0.21214466
H -0.9108832 0.672724 -1.8996953
H -0.48829684 -1.7814237 1.0841775
H 0.7411019 0.11485787 -2.081111
H 0.6981509 1.3518744 2.152168
