11

O -1.3860104 -0.26838994 -1.0004449
N 1.302489 0.24979995 0.93628
C -1.1843753 0.25394815 0.33646014
C 0.021396074 -0.48850662 -1.2078485
O 1.2849631 0.7224377 2.1084821
C 0.27988294 0.048835274 0.16923794
H 0.40837234 0.10412104 -2.0462658
H 2.2228537 -0.00053384237 0.5485552
H -1.5267509 1.2912928 0.42941535
H -1.6750888 -0.36396852 1.0978097
H 0.25226846 -1.549036 -1.3716813
