9

C 0.7748334 0.11893145 -1.6538543
C 0.15238209 0.025535628 -0.3330894
C -0.34982842 -0.04255221 0.7588725
C -0.97311485 -0.14941962 2.0668342
O -0.65490276 0.51862645 3.0220695
H 0.8148818 1.1589068 -1.9848753
H 0.21710563 -0.46140704 -2.3948317
H 1.7987591 -0.26432768 -1.6149082
H -1.780116 -0.9042939 2.1337826
