9

C 1.07704248 0.10131218 -0.96934369
C -0.25605277 -0.07709460 -0.31709149
C -0.47805704 0.00196120 0.99054930
C -1.39422081 -0.07144487 1.90183577
O -2.07565119 -0.10228707 2.85077436
H 1.02927778 0.93083462 -1.68569593
H -1.09448397 -0.28272754 -0.98721899
H 1.32923444 -0.79778126 -1.54528674
H 1.86291107 0.29722722 -0.23852269
