11

N 0.90215576 -0.36314988 -1.5445929
C 0.14124875 -0.25108096 -0.43843988
C -1.292326 -0.54023945 1.0899156
N -0.75582993 -1.114476 -0.07645431
C 0.1879898 0.9199018 0.51609355
N -0.8314701 0.5838368 1.4984396
H -2.0810518 -1.0722427 1.6132354
H 1.1660043 1.0312699 0.9954889
H 1.7381407 0.18880072 -1.6398351
H -0.05388796 1.864785 0.017315982
H 0.8790266 -1.247405 -2.0311668
