11

N -0.44681937 -1.23312406 0.31454489
C -1.67462719 -0.57551851 0.11951332
C 0.42251137 -0.30441069 0.06356634
N 1.75737684 -0.48481331 0.09007111
C -0.25739525 0.99304947 -0.30905081
N -1.67112415 0.65931178 -0.22401153
H -2.59199789 -1.13615871 0.27147723
H 2.09673039 -1.35163172 0.48079000
H -0.00994431 1.80855470 0.37830236
H 2.37292373 0.30977685 0.13823606
H 0.00236587 1.31496405 -1.32343897
