11

N -1.713116 -0.18817599 0.17941307
C 0.5527998 0.038154848 -0.10028926
C -1.2882484 1.0829298 0.11556931
N 0.016818063 1.2707586 -0.08597721
C -0.44863853 -0.9229556 0.08833408
N 1.9108922 -0.14857367 -0.2210423
H -1.9800917 1.9083358 0.23312236
H -1.1772138 -0.71351475 1.1461807
H 2.3814816 0.66617805 -0.5876293
H 2.1995652 -1.006326 -0.6635848
H -0.45424846 -1.9868113 -0.10409671
