10

N 0.82656467 -1.5076203 -0.45587137
C -0.20386466 -0.6475883 -0.363242
O -1.3312097 -0.8198437 -0.7837448
C 0.20274591 0.64637953 0.36494228
O 1.330552 0.814127 0.78598034
N -0.82576865 1.5090886 0.45419642
H 1.7123637 -1.2344741 -0.057636462
H 0.7026284 -2.3955686 -0.9091805
H -0.7013065 2.398569 0.9055829
H -1.712705 1.2369308 0.058973275
