12

C 0.30789405 -0.47412330 -1.52806997
C 0.00325137 0.17886952 0.83628736
O 1.22265993 -0.38655170 1.02909891
N -0.18256150 -0.44786188 -2.70070549
C -0.73730364 0.73281437 1.80005288
N -0.38073126 0.11919921 -0.49171193
H 0.43879915 -0.92262834 -3.34856654
H -1.26292514 0.53890845 -0.74126562
H 1.25130709 -0.93189771 -1.22707364
H 1.43221963 -0.33110560 1.97057371
H -1.71059895 1.15382848 1.57764142
H -0.38201064 0.77054848 2.82373877
