11

N 0.96604246 0.4624541 -2.1409924
C 0.57945544 0.24205454 -0.9571203
C -0.8001549 -0.11942141 -0.6453881
C -1.1504266 -0.3394149 0.6269403
C -0.12258443 -0.20522153 1.6415095
N 1.0965515 0.10645475 1.4175463
O 1.463103 0.33474907 0.100801244
H 1.95815 0.6966442 -2.1644077
H -1.47945 -0.19349824 -1.4853522
H -2.1601841 -0.61226964 0.91657877
H -0.3505022 -0.37253097 2.689884
