12

N -0.24465463 -0.39760476 -0.8740255
C 1.6326643 1.0588374 -0.25429893
C -0.28744036 0.40883672 1.2751421
C -1.366704 -1.0573304 -0.0050105955
N 2.376224 1.8701253 -0.61066425
C 0.70454496 0.024772873 0.1971446
N -1.3681405 -0.27582705 1.1094563
H 0.17705877 -1.0554094 -1.5284226
H -0.020046353 0.93969727 2.180447
H -0.5621952 0.43223047 -1.3910252
H 1.2578274 -0.8866691 0.47292662
H -2.2991385 -1.0616593 -0.5716694
