12

N 0.51782393 0.35168862 -0.7323129
C -1.699111 -0.66265094 -0.7891867
C 0.060586315 -0.6931403 1.0627975
C -0.7417505 0.081696324 0.016590383
N 1.1256976 0.14423746 1.3682985
C 1.3650664 0.8578158 0.31381848
N -2.4786212 -1.2375802 -1.4190966
H 0.6875138 -0.85649484 -0.5084344
H -1.1691763 1.0312259 0.37237686
H -0.4332188 -1.2034343 1.8834696
H 0.49602687 0.7812757 -1.6527145
H 2.2691627 1.4053608 0.08439377
