12

O -0.1418889 1.4344046 0.62083566
C -0.29165536 -0.8892872 1.1083022
C 0.47716564 -0.05881495 -1.1206044
O -1.217673 -0.61460197 1.8333123
C 0.47456628 0.19821183 0.38468492
O -0.8363777 -0.028503206 -1.6166075
H 0.0472258 -1.9324864 0.9566088
H 1.1202523 0.6934128 -1.5986999
H -1.217716 0.80117774 -1.2916708
H -0.8144696 1.2628038 1.3034971
H 0.8896259 -1.0497844 -1.3419018
H 1.5109445 0.18346718 0.76224345
