12

O -0.02783925 1.54290000 -0.28595542
C 0.48066779 0.34928194 0.24381173
C -0.39816939 -0.10334369 1.39104622
O -0.79472590 -0.87141459 -1.38665326
C 0.49790786 -0.70077001 -0.86481767
O -1.31362787 0.58379044 1.77625102
H 1.21783425 -0.38210002 -1.63171908
H -0.73004331 1.82109004 0.32833932
H 1.50171917 0.48385909 0.63902146
H -0.15078544 -1.07312006 1.86480869
H -1.10793157 0.02024774 -1.60162704
H 0.82499328 -1.67042098 -0.47250584
