12

O -0.26856424 0.51234011 1.07686254
C 0.73662282 -0.43273082 0.78313953
C -0.80263705 1.19432423 -0.05428641
O 0.13039341 1.48334575 -1.04110152
C 0.20027947 -1.52353570 -0.13284321
O 0.04254298 -1.35096002 -1.32505133
H -1.63548560 0.59856454 -0.45948066
H -0.10002793 -2.48204466 0.33360720
H 1.03451120 -0.85492786 1.74770734
H 1.60085028 0.03727140 0.29452848
H -1.17601739 2.13925630 0.34865572
H 0.23753190 0.67909662 -1.57173788
