10

C -0.2235383 0.97501427 -0.3698017
C -0.62860924 -0.040819596 -1.2348477
N -0.45491648 -1.3365633 -0.98608136
N 0.13216548 -1.7120035 0.1384167
C 0.54127413 -0.7874734 1.0052338
C 0.38914904 0.58309335 0.80287963
H -0.38946727 2.0176926 -0.61835057
H -1.1196884 0.18192829 -2.180298
H 1.0128791 -1.1788226 1.9027151
H 0.74075204 1.2979541 1.5401342
