11

C 0.64056782 2.05589483 1.75861078
C 0.35633790 1.06166788 0.72183028
C 0.12271866 0.23833394 -0.11628438
C -0.67556788 -1.80760870 -0.75270729
O -0.09446834 -0.59999873 -1.11333108
N -0.78901604 -2.45571062 -1.90662716
H -1.20948785 -3.37093569 -1.89382260
H 0.10826435 1.80356503 2.68265503
H 1.71215427 2.09041666 1.97940599
H -0.49257755 -2.06948556 -2.80115641
H 0.32107434 3.05386104 1.44142623
