11

C 0.190412 0.45089972 0.10230416
C -0.5386525 0.76660496 1.4380304
C 0.4397581 0.00041818296 -1.0089126
C 0.54905254 -0.54157186 -2.3609123
O 0.764108 1.0229056 1.3575257
N -0.95109254 0.24970593 2.5896733
H -0.2860767 0.07592134 3.3393621
H -0.28098124 -0.22291508 -3.0027575
H 0.5597601 -1.6371005 -2.3473346
H -1.9246138 0.040807206 2.7290144
H 1.4783261 -0.20567562 -2.8359935
