9

O 1.0980296 1.3307139 0.23342866
C -0.54456323 -0.29105258 -0.29761365
C -0.087890014 0.9223845 0.4532834
O -0.088540904 0.15862519 -1.485324
C 0.076666564 -1.5519842 0.230195
N 0.5895148 -2.5148997 0.60903734
H 1.3053033 0.78572226 -0.61550325
H -1.6387154 -0.40912914 -0.20029333
H -0.70980453 1.5696198 1.0727898
