9

O -1.1180013 0.3685656 -1.0515848
C 0.07397995 -0.0920907 -0.511604
C 0.4863509 0.7406805 0.70277244
O -0.22831354 1.6275005 1.0938648
C -0.003281708 -1.5069846 -0.06568049
N -0.050833385 -2.5949376 0.31818604
H -1.4812586 1.0015963 -0.40837014
H 0.87657946 -0.02809255 -1.2605945
H 1.4447783 0.48376274 1.1830107
