9

O -0.004834107 -1.3840879 -1.0048482
C 0.3524717 1.4504924 -0.35874254
C -0.12785797 -0.9348801 0.27217138
O -1.2284708 -0.13359195 0.6109931
C 0.06872599 0.47082254 0.6767369
N 0.593513 2.1905034 -1.216431
H 0.115227714 -1.7252623 0.977284
H -0.1852044 -0.66633177 -1.630826
H 0.41642883 0.732336 1.6736625
