11

N 0.73328394 -2.1324053 -0.4928535
C 1.4550697 -1.5832964 0.44018164
C -0.39509732 1.3111848 -0.34155533
N 1.2884527 -0.244974 0.7856485
C 0.46879038 0.5005222 0.2160237
N 0.064438425 -2.53434 -1.3197587
N -1.7469039 1.4902852 0.026577208
H -0.08139953 1.8720961 -1.2176002
H -1.9730173 1.0477614 0.90727156
H 2.1877913 -2.1954517 0.94541353
H -2.0014083 2.4686177 0.050651673
