11

N 1.1112113 1.3052899 0.36482903
C -0.6209603 -0.015255963 -0.13236293
C 1.8468761 0.22005178 0.5968652
N -1.4523879 -0.09694073 -1.2566952
C 0.16913114 -1.0794276 0.32874334
N -0.14378217 1.3036569 0.2132418
N 1.2498063 -0.9313035 1.0606716
H -1.7061527 -1.0513465 -1.477056
H -2.260746 0.5086701 -1.1988432
H -1.117035 -0.49099252 0.90331465
H 2.9240386 0.32759812 0.5972918
