11

N 0.61823522 -2.19663936 0.34687601
C 0.48968358 0.52389038 0.05198054
C 1.33275269 -1.38059631 1.06561684
N 1.23595952 -0.00169286 0.89987074
C -0.29711081 1.11646451 -0.81067853
N -1.64943105 1.47440036 -0.61550824
N -0.03876565 -2.83963296 -0.32214351
H -1.84279790 2.40599652 -0.95788873
H 0.08814789 1.31066371 -1.80784693
H 2.00344821 -1.80127816 1.80051045
H -1.94012179 1.38842420 0.34921147
