11

N 0.9943923 -0.84438205 -1.527964
C 0.24930154 -0.22453809 -0.5550652
C 0.5876405 -0.27882543 0.81460357
N -0.12033203 0.38253674 1.7030494
C -1.1498797 1.0888035 1.2077112
N -1.5074217 1.1596671 -0.064149134
N -0.79793996 0.4831036 -0.96266073
H 1.5257672 -1.6589545 -1.268578
H 0.53981316 -0.9002562 -2.4277565
H 1.433771 -0.86216176 1.1712897
H -1.7551124 1.6550071 1.9095198
