11

O -0.2777716 1.6413729 2.1649852
C -0.21395901 0.86823416 1.2338215
C 0.7535536 1.0207317 0.13581777
C 0.7795366 0.1364613 -0.8714884
N -0.10420715 -0.92192507 -0.87860984
C -0.9931674 -1.0440536 0.15251707
N -1.087704 -0.24814187 1.1525254
H 1.4363668 1.8604654 0.1676408
H 1.4646487 0.18813623 -1.7116458
H -0.09971912 -1.5970912 -1.6240145
H -1.6575776 -1.9041898 0.078450784
