12

N 0.31937656 -0.7305125 -1.3573246
C -0.5215542 0.29941282 0.43346804
C 1.2627689 -0.6472097 -0.40745026
N -1.3044192 0.8951277 1.4155259
C -0.8457659 -0.11278884 -0.82838374
O 2.4907932 -0.98693514 -0.23678051
N 0.8005051 -0.034907382 0.6737006
H -0.776031 1.5370201 1.9918042
H 0.4247773 -1.1567754 -2.2605672
H 2.0409462 -0.35891813 0.92388225
H -1.765152 -0.052097365 -1.38838
H -2.1262453 1.3485838 1.0405058
