12

N -0.90620676 0.28958916 -2.02514392
C -0.43720821 0.11742280 -0.72158579
C 0.98879207 -0.37878756 0.76620514
N -0.14825691 -0.12556251 1.43489366
C -1.10674275 0.20569636 0.46429353
O 2.09282752 -0.72579544 1.44565208
N 0.88277324 -0.24869473 -0.52706149
H 2.78146571 -0.86905535 0.78248672
H -0.13692333 0.45381917 -2.66018286
H -2.12868601 0.43627356 0.72056307
H -0.27052561 -0.16256737 2.43155012
H -1.61130918 1.00766204 -2.11167077
