11

N -0.5132473 0.03420601 -1.9757978
C -0.79528034 0.8426744 0.36125106
C 1.0199547 -1.0757245 0.7698673
O -0.4062273 0.35133687 1.5956337
C -0.10521042 0.11189377 -0.7957953
O 1.1233486 -0.43774202 -0.37374973
H -0.066227145 -0.7854212 1.3742716
H 0.12821704 -0.48426965 -2.5765
H 2.0243912 -1.2101521 1.1905688
H -0.5362537 1.9082999 0.26413825
H -1.8734651 0.7448984 0.1661123
