11

N -0.45180475 -0.17221204 -1.90585013
C -0.14001398 0.08029233 -0.72345100
C 1.21101262 -0.26272683 -0.12252934
O 1.27284069 -0.26576463 1.27138030
C -1.34441726 0.16747142 1.23380357
O -1.02157691 0.80786276 0.13132841
H -1.37153285 0.19288830 -2.14591541
H 0.46496075 -0.70358844 1.59107166
H 1.50352705 -1.21572672 -0.58491357
H -2.04273729 0.87317553 1.72597504
H 1.91974181 0.49832836 -0.47089948
