11

N -0.6240463 -0.7120867 -1.9408135
C -0.32265845 -0.2763023 -0.79986703
C 0.7068526 -0.87378556 0.13218963
O 0.43825662 -0.24438374 1.3712392
C -0.1316228 0.9880289 1.0497531
O -0.8475967 0.8127575 -0.17219996
H -1.3302194 -0.13040647 -2.3836603
H 0.5877 -1.9524798 0.24024008
H 1.7201093 -0.6494447 -0.22865821
H -0.8310685 1.2764144 1.8348023
H 0.6342935 1.7616885 0.89697474
