11

C 1.05850125 1.20655808 -0.91309065
N 0.02514034 0.45122458 -0.23419216
C 0.37320547 -0.56707122 0.42940730
N -1.72577860 -1.95875919 0.21506849
C -1.88825628 -0.94425955 0.90216167
N -0.56467343 -1.32144400 1.18410186
H 0.84533970 1.21175936 -1.98604920
H 1.01771828 2.24468516 -0.56698655
H 2.07164230 0.81308007 -0.74893969
H 1.39560248 -0.94861507 0.53581675
H -2.60844142 -0.18715837 1.18270212
