11

C 0.9375362 1.09091 -0.7675482
N 0.08844214 0.13733494 -0.08574383
C 0.37920958 -1.0693499 0.42403963
N -0.6981043 -1.6131139 0.95831436
C -1.6392436 -0.66324425 0.7360468
N -1.2165843 0.41339046 0.108781315
H 0.5750843 1.2443244 -1.7868096
H 0.92187166 2.041842 -0.23087922
H 1.9566458 0.699728 -0.7944476
H 1.3653184 -1.5116546 0.39062598
H -2.6701758 -0.7701673 1.0476203
