11

C 0.51124823 -0.96269375 1.5003852
C 0.1651947 -0.12424066 0.320026
N 0.6325669 1.0357076 -0.0075324504
C -0.034419138 1.3592335 -1.1804297
C -0.8797665 0.35861015 -1.49883
O -0.76249325 -0.60631907 -0.5423276
H -0.3816024 -1.1971987 2.0883121
H 1.2177465 -0.41529143 2.125487
H 0.96781534 -1.9091191 1.1925566
H 0.14629138 2.2883677 -1.7032772
H -1.5825818 0.17294374 -2.2943704
