11

C -0.92075855 -1.3927606 0.3154043
C 0.40398422 -1.507226 -0.06359065
N 1.4029269 -0.4714323 0.46618986
C 0.665726 0.43282667 0.19310264
C 0.20867868 1.7311317 -0.25776523
O -1.4185402 -0.33900538 0.78808063
H -1.5255015 -2.3089564 0.21186152
H 0.7208345 2.0168123 -1.1815741
H -0.8768771 1.6685703 -0.3745393
H 0.896587 -2.2837937 -0.6280305
H 0.44293997 2.4538338 0.5308607
