11

C 1.2746446 -1.1399281 -0.5528027
C 0.22379105 -0.5646568 0.3056839
N -0.7153058 -0.8472333 1.0775343
C -1.4055696 1.3300949 -0.0818621
C -0.43421352 0.63141805 0.8050817
O -1.9450392 0.7935641 -1.020751
H 1.2764442 -2.2300785 -0.49228394
H 2.2484317 -0.7447702 -0.25136524
H -0.016490888 1.2066619 1.6299378
H -1.5948372 2.394809 0.16554353
H 1.0881447 -0.8298812 -1.5847164
