9

N 0.28427574 -0.89235811 0.78902799
C 0.65471287 0.33009295 0.90056240
C 0.13455854 1.13223274 -0.22296857
N -0.55281569 0.39676295 -1.01818216
C -0.50183189 -0.92903006 -0.43042963
H -1.51608763 -1.28255068 -0.21009200
H 1.26810394 0.68770353 1.72228995
H 0.28919958 2.19408678 -0.38971357
H -0.06011542 -1.63694050 -1.14049449
