9

N -0.11713277 -0.8478137 0.45211315
C 0.3586598 0.37787116 0.8586889
C 0.27487305 1.1773083 -0.24758328
N -0.23641165 0.48055944 -1.3126208
C -0.46067423 -0.7278381 -0.8595503
H -0.201633 -1.6764232 1.0161529
H 0.69887155 0.5511031 1.8688734
H 0.55176914 2.2177565 -0.34616545
H -0.86832184 -1.5525239 -1.4299086
