9

N 0.026645007 -0.98101366 -0.8469065
C -0.5292948 0.23355351 -1.0079805
C 0.15390854 0.22992302 1.0475364
N -0.5175651 1.0228688 0.1832871
C 0.44112313 -0.98646486 0.42611864
H -1.1779336 0.5036317 -1.8352041
H 0.94848496 -1.8460497 0.84814656
H 0.4167602 0.5837793 2.035263
H 0.23787187 1.2397718 -0.8502603
