11

N -1.49001058 0.49621432 -1.17553810
C -0.45512649 0.25750780 -0.51773443
C 0.76265161 -1.66211107 -0.19612033
O 0.81093675 0.32147097 1.60376674
C -0.08943774 0.98130840 0.76642307
O 0.52718183 -0.65309635 -1.00550967
H -1.51303212 -0.03059406 -2.04749194
H 1.52010411 -2.24242088 -0.76519783
H 0.58421519 -0.62125558 1.60898399
H -1.04391737 1.22581942 1.25109961
H 0.38643430 1.92715707 0.47731897
