11

N 1.7856107 -0.9259823 0.33113778
C 0.7483414 -0.30533597 0.008247667
C -1.409593 -0.6795633 -0.5935269
O -0.15404752 -0.78754413 -0.9680072
C 0.29333502 1.058973 0.53674006
O -1.0724739 1.2261147 0.43750337
H -2.0441492 -0.80717134 -1.4791968
H 1.8850306 -1.8026978 -0.18173407
H 0.8306862 1.8202182 -0.050440118
H 0.6730397 1.1066464 1.5679368
H -1.5357802 0.096342206 0.39133945
