14

C 0.20529138 -1.0211414 -1.8376938
N 0.1819657 0.76628697 0.42440045
C -0.20281094 -0.54479206 0.406557
O -0.5126641 -0.98708683 1.637903
N -0.28909102 -1.3483758 -0.583894
C 0.014492232 1.6062707 1.6020596
N -0.04918452 -1.7499207 -2.8519678
H 0.16703857 1.236049 -0.4681061
H 0.4132418 -1.3832586 -3.6740088
H 0.61967456 2.5061224 1.4707143
H -1.0312086 1.8954144 1.7631009
H -0.7450916 -1.9189233 1.514366
H 0.36884335 1.0751328 2.4865844
H 0.8595032 -0.13177705 -1.8900145
