14

C -1.81913373 1.06964119 0.83278470
N 0.88140431 -1.17398926 -0.29580229
C -0.10256204 -0.62896826 0.31160744
O -0.84363677 -1.36955877 1.15432955
N -0.54940839 0.66086347 0.24866191
C 1.80265670 -0.42716222 -1.01486673
N 2.66569628 -0.99532378 -1.76118040
H -1.90649305 0.66672310 1.84277562
H -0.43157244 -2.24569903 1.14075130
H -2.67882345 0.72726175 0.24393962
H -0.22751802 1.19436785 -0.54457626
H 1.77047982 0.66745828 -0.86496631
H -1.83504222 2.16034466 0.89060493
H 3.27395336 -0.30595895 -2.18406343
