9

O 0.08757408 -0.22592641 -1.67396693
C -0.95376139 -0.22136155 -0.72719543
N -0.52336154 -0.99476301 0.48520181
O 1.36011635 -0.03536079 1.55680205
C 0.41102021 -0.12359011 0.63635586
C 0.12278472 0.73218003 -0.58753111
H -1.98642848 -0.13325040 -1.04325109
H 1.25003504 -0.78490090 2.16045377
H 0.23202084 1.78697293 -0.80686879
