9

O 0.58706933 1.1275179 1.6305988
C 0.08534198 0.4969437 0.5787267
N -1.0781244 0.57898873 0.036072467
O -0.30306283 -1.6409073 -0.27650213
C 0.67921954 -0.5765959 -0.32024145
C -0.6121917 -0.44738725 -0.95527005
H -0.10232073 1.7156547 1.9728854
H -0.9359163 -0.4685703 -1.9891026
H 1.6799854 -0.78564423 -0.67716736
