9

O 1.0299468 -1.2629452 -0.71986043
C -0.6285013 0.3776397 -0.7176611
N 0.87123805 -0.5950237 0.689443
O -1.0461789 0.26436868 1.68978
C -0.38974383 0.0042265155 0.5738736
C 0.70122546 -0.04927977 -1.0833788
H -1.4091958 0.9067975 -1.2352314
H -0.58609414 -0.18863906 2.41396
H 1.4573035 0.54285526 -1.610925
