9

N -0.054817587 -0.6705826 -0.76741767
C -0.5951147 1.1875043 0.70814437
C 0.90864253 -0.92944795 0.41856524
C 0.46716958 0.45365265 0.029189551
N -1.4178637 1.7421403 1.3002154
H 0.3362745 -0.8130128 -1.6913626
H 0.25175223 -1.2742211 1.2288064
H -1.0629023 -0.79880923 -0.7311032
H 1.1668594 1.1027764 -0.49503726
