10

O -1.3396786 -0.87239987 -0.7789274
C -0.36177433 1.0437607 -0.07949752
C 0.6178191 0.43980926 0.7747537
C -0.1889064 -1.3183063 -0.62160814
N 0.8718797 -0.6590959 -0.19625056
H 0.03657628 -2.3613908 -0.8921024
H -0.017043957 1.5274037 -0.98800844
H -1.4137568 1.1126305 0.16161443
H 0.23876555 0.10079936 1.7449994
H 1.5561197 0.98678935 0.8750269
