9

N 0.5077313 -0.19965868 0.19913696
C 0.965681 -1.2396133 -0.57941294
N -0.7329303 1.3272495 0.90521747
C -0.6339734 0.4474605 -0.044208296
O 1.9870596 -1.8506294 -0.38556316
H -1.3173078 0.26032498 -0.87036693
H 0.2892664 -1.470485 -1.4317279
H 0.4193999 0.7312428 1.2169439
H -1.4849266 1.9941086 0.989981
