9

N 1.2660677 -0.15573414 -1.5623521
C 0.21950343 -0.023105461 -0.8621114
N 0.29357502 -0.036821656 0.5230619
C -0.78317463 0.09227674 1.364889
O -0.71032196 0.07466449 2.568862
H 1.0411763 -0.12254459 -2.5512416
H -0.80063117 0.10950182 -1.2365663
H 1.2105557 -0.15308425 0.9381399
H -1.7367502 0.21484706 0.8173184
