9

N 0.67599454 -0.06692815 -1.61014885
C -0.03990884 0.03197581 -0.48035880
N 0.49752725 -0.12041089 0.68391740
C -0.39546414 0.01535403 1.74413537
O -0.08206145 -0.08587063 2.90528977
H 1.65607566 -0.29087525 -1.55402683
H 0.24764597 0.03437288 -2.51499806
H -1.10436686 0.25361851 -0.62998932
H -1.45544192 0.22876370 1.45617914
