11

N -0.92451066 0.20494577 1.4511025
C 0.36139616 0.5793607 1.5453179
C 0.2912469 -0.1149453 -0.4676052
N 1.1217668 0.3818283 0.46636108
C -1.0026442 -0.23068345 0.053454928
N 0.7271017 -0.37518427 -1.7479705
H 0.25275797 -1.1197004 -2.2337139
H -1.4449532 0.88231695 0.5726424
H 0.747321 1.0313741 2.4519353
H -1.8621268 -0.7926154 -0.28820515
H 1.7326443 -0.44669715 -1.8033195
