11

O 0.3921791 2.6334937 -0.8782965
C -0.21961173 1.6720922 -1.2692623
N -0.24696317 0.44965786 -0.61363167
C -0.47640288 -1.9907197 0.39719015
C 0.32711506 -1.0697241 1.0954057
C 0.41609174 0.1911943 0.53239375
H -0.7783368 -0.36459684 -0.939546
H -0.47164968 -2.960892 0.92190486
H 0.87801194 -1.2377251 2.0225246
H 0.9945321 1.0200921 0.9295007
H -0.81496567 1.6571277 -2.1981833
