11

O 1.7504803 -0.9165364 -1.8334517
C 0.731425 -0.26425236 -1.9173654
N -0.033217624 0.08718773 -0.85460466
C 0.34097084 -0.32392815 0.48939332
C -0.57832295 0.24843234 1.4717369
C -1.3428644 0.7210286 2.267441
H 0.32516143 0.10935246 -2.8767118
H -0.8784697 0.62170523 -0.9932252
H 0.33211127 -1.4192301 0.56238186
H 1.3668631 0.00031995267 0.6977917
H -2.0141373 1.1359206 2.986614
