11

C 0.103980586 -0.17213665 1.0144489
C 0.22587131 1.319638 0.3629652
C -0.3410589 -1.2829989 -1.2575384
C -0.119052425 -0.9767695 0.045105483
N 0.4852884 2.0960872 1.3617694
O 0.058958966 1.4128934 -0.8539854
H -0.34144244 -2.2159061 -0.20286086
H 0.56495947 3.0429869 0.978029
H 0.48781416 -1.5878596 -1.8937675
H 0.237762 -0.30699772 2.077345
H -1.3630811 -1.3289376 -1.6315105
