11

C 0.44810006 -1.0033954 -0.7474036
C 0.2700409 -1.0124483 0.7430519
C -0.35400757 1.025078 -0.06002461
C -0.19544744 0.16702147 1.1331272
N -0.7785058 2.2125354 -0.076429576
O 0.038343914 0.30337104 -1.1532438
H 0.49802396 -1.8723438 1.3600469
H -0.17895189 -1.7477232 -1.2519511
H -0.4412207 0.50913006 2.1303809
H 1.4889245 -1.1621828 -1.0509347
H -0.7952998 2.5809577 -1.0266193
