11

C 1.0103455 -0.8086156 -1.1424124
C 0.2165752 -0.16277675 -0.059702434
C -0.88362277 0.6318278 -0.052461397
C -1.091896 0.88004553 1.330108
N -0.20069985 0.28915977 2.0773387
O 0.6304657 -0.3730713 1.2027909
H 1.0080044 -1.8971025 -1.032725
H 0.5835767 -0.55313134 -2.1136029
H 2.0503478 -0.46888372 -1.1153495
H -1.4564646 0.98768586 -0.89453614
H -1.8666322 1.4748622 1.8005521
