12

N 0.3510188 -0.9973929 0.7597428
C 0.3947382 0.34664142 0.17891045
C -0.80235606 0.49185994 -0.7461903
O -0.47382918 -0.87308973 -1.7841887
C 0.3270396 1.4321135 1.1827317
N 0.25782263 2.2584138 1.987275
H -0.06616824 -1.467041 -1.1039932
H -0.6189231 1.2953773 -1.4670355
H 1.3637244 0.44592652 -0.33428383
H -1.4266181 -0.6801447 -1.3500576
H 1.1720643 -1.1798192 1.3306198
H -0.4785134 -1.0728451 1.3464696
