11

N -2.0011628 0.10085832 -1.1521745
C 0.792964 -0.05744706 0.86779135
O -0.4864068 0.61912787 0.36059988
N 2.0037787 0.5514627 0.8174829
C -0.8200949 -0.17336553 -0.6110202
N 1.1231374 -0.96173084 -0.13986032
H 2.4608448 0.46319085 1.7237197
H -2.333209 -0.4696213 -1.9108727
H -2.5912597 0.8521258 -0.81473774
H 1.396779 -0.39981022 -0.9405585
H 0.45462957 -0.52479064 1.7996303
