11

N -1.21837615 -0.11024244 1.69996088
C -0.19573642 -0.54678162 0.81969123
O 0.00936546 0.28607932 -0.27806560
N 0.21124129 -0.08793009 2.10096964
C 0.44540534 -0.35473467 -1.38346080
N 0.59738880 0.57297169 -2.32319881
H 0.47785827 0.89188952 2.02639952
H -1.61791330 -0.90726204 2.18810436
H 0.41433949 1.56300404 -2.18816132
H -0.03339778 -1.59446689 0.57314589
H 0.90982511 0.28747332 -3.23538483
