11

O 1.7529447 -0.9183078 -1.8344138
C 0.73218876 -0.26745075 -1.917507
N -0.034721058 0.08396676 -0.8552151
C 0.3374879 -0.32198614 0.49106514
C -0.5776276 0.2515698 1.4736899
C -1.341721 0.7259328 2.2686694
H 0.32596993 0.10476997 -2.876438
H -0.87761515 0.6182389 -0.99586785
H 0.32965204 -1.416486 0.56502646
H 1.3653928 -0.0014629568 0.6934298
H -2.0119514 1.1412154 2.9875607
