11

O -1.5060272 -0.13039227 -0.66798264
C -0.82220775 0.18737057 0.4261164
N 0.8470514 -0.7599066 -0.5146632
C -0.1486961 1.4447354 0.46554986
C 0.08013888 0.43729767 -0.78812456
C 0.109729975 -1.006697 0.76462585
H -0.7776759 2.202508 -0.025527924
H 0.09008057 0.9582854 -1.7351916
H 1.8143435 -0.5060564 -0.34342554
H 0.70892626 -0.8544683 1.6626904
H -0.39566332 -1.9726763 0.75593305
