11

N -0.14696796 1.3145044 0.10825176
C -0.27166775 0.61551654 1.2730902
C 0.064745195 0.33622968 -0.95025104
N -0.033727393 -0.6534142 1.2318696
C 0.22985424 -0.9427494 -0.12871817
N 0.55427444 -2.055626 -0.6328755
H 0.9597811 0.55184823 -1.5399672
H -0.53134584 1.1393498 2.187547
H 0.6072771 -2.753417 0.106835715
H -0.63204044 2.185312 -0.037607316
H -0.8001826 0.26244566 -1.6181751
