11

N -0.36026543 0.4930433 1.9628675
C -0.15732934 0.18394792 0.6134399
C 0.5232144 -0.8689817 0.054754756
N 0.3466184 -0.7131588 -1.3131689
C -0.41689292 0.38702676 -1.494851
N -0.7348899 0.95872074 -0.3567311
H -0.75223935 1.4222072 2.044442
H 0.4747955 0.41505432 2.5257788
H 1.0774827 -1.6946803 0.47244537
H 0.71097755 -1.3160561 -2.0320814
H -0.71147156 0.7328767 -2.476896
