13

C -0.05700547 -0.55842060 -0.25939550
C -0.82286600 0.05033896 -1.42178605
O -1.44416499 0.56204137 1.35501661
C -0.32316564 0.21006704 1.04045644
O 1.33490555 -0.68993566 -0.52810330
N 0.79170646 0.44012937 1.77747508
H 1.63101569 0.12079757 -0.96215171
H -0.41253628 -1.57890194 -0.08311719
H 1.65416355 -0.00307294 1.50356732
H -0.68973360 -0.56143641 -2.31863588
H -1.88407636 0.11652785 -1.17368601
H -0.46412215 1.06630090 -1.63141222
H 0.68587921 0.82556421 2.70177248
