13

C 0.20062216 -1.5196909 -0.5987402
C -0.20559064 -0.054950077 -0.5852887
O -1.5704072 0.13560377 -0.23123647
C 0.7372826 0.76769626 0.30135193
O 1.94416 0.6182026 0.2653614
N 0.09679701 1.6551518 1.1062713
H 1.2506487 -1.6151918 -0.8809452
H -0.4225806 -2.076601 -1.3049595
H 0.07912937 -1.9632604 0.39835954
H -0.11311174 0.35878482 -1.5944428
H -1.7595929 -0.43404195 0.526708
H -0.88895935 1.8107936 0.9722124
H 0.65160257 2.317503 1.6253484
