11

N -1.23985230 0.10128271 0.57050024
C 0.04441735 -0.01093257 1.08357277
C 0.94596812 -0.07812173 -0.01624617
N 0.06515713 0.01368710 -1.12417299
C -1.22258082 0.11616186 -0.74759706
N 2.21657024 -0.19241880 -0.22929780
H 2.71096292 -0.24560282 0.65598528
H 0.22736710 -0.04963032 2.14451468
H -2.07802672 0.16088046 1.12807193
H -2.08018663 0.19006277 -1.39652758
H 0.41020392 -0.00536859 -2.06880285
