15

N 0.08154088 -1.53354439 1.19545664
C -0.87278090 1.21657132 0.08163126
O -1.20335621 -0.12871549 -0.23723532
N 1.08525972 0.00346264 -0.34184751
C -0.02301318 -0.90767018 -0.09896240
C 0.53602047 1.35241195 -0.50125639
O -0.05871701 -1.94124021 -1.01808225
H -0.34819225 -0.94547624 1.90339077
H -0.40002142 -2.42605053 1.17689178
H 0.30275597 -1.57692645 -1.83528595
H 1.13563095 2.10613332 0.01925512
H 1.75970916 -0.07974759 0.41098446
H -1.61946890 1.87597233 -0.36491683
H 0.49058984 1.61797811 -1.56308653
H -0.86595756 1.36684224 1.17306294
