10

O -0.12639688 -1.1806242 -1.0821004
C -0.06710362 -0.478895 0.11578856
C -1.3114856 0.37535048 0.331624
O -1.4838645 1.0083915 1.3423145
C 1.1425852 0.44148344 0.14448096
O 1.9279941 0.4487919 -0.7709202
H 0.6720163 -0.932464 -1.5764668
H 0.021897133 -1.1514795 0.9842245
H -2.020125 0.3765757 -0.5185293
H 1.2444826 1.0928698 1.0295842
