12

O 0.39653019 -1.69746239 -1.79546789
N -0.48400741 0.63041026 1.44097002
C -0.31889775 1.34576150 0.14876757
C 0.04355405 -0.63663317 0.86831228
N 0.10966813 -0.32283796 -1.70727405
C 0.00722909 0.02119779 -0.49327970
H 0.51457115 2.05907796 0.11995770
H 0.09993365 1.00543389 2.17958021
H 1.05846972 -0.90622327 1.18777563
H -0.61815337 -1.49738268 1.00147874
H -1.22773473 1.84290413 -0.20360010
H 0.41883735 -1.84424606 -2.74722070
