13

C 0.5849502 -1.584582 -1.1661165
N 0.22812472 -0.64420116 -0.12659939
C -0.052676607 0.65942514 -0.37727782
O -0.07230772 1.168429 -1.4837114
C -0.3364843 1.477587 0.8782958
O -0.56378716 0.69319445 2.0370412
H -0.10908932 -2.4302921 -1.182482
H 0.5340934 -1.0574486 -2.1200411
H 1.6019838 -1.9614532 -1.019984
H 0.26642427 -0.91265386 0.8449223
H -1.1687304 2.155806 0.6531273
H 0.54696196 2.09251 1.0804601
H -1.4594628 0.3436792 1.9823655
