10

N 0.8075441 -0.15598573 1.6799605
C -0.3794314 0.14109537 1.3639032
O -0.7922785 0.20796801 0.0894538
C 0.21463352 -0.085608 -0.8723921
C -0.38938957 0.03950999 -2.2011406
N -0.81525457 0.12449833 -3.2719862
H 0.9186563 -0.15852255 2.6913657
H -1.2162299 0.37720025 2.0262618
H 0.5976643 -1.1004831 -0.729013
H 1.0540859 0.61032736 -0.7764133
