10

O 1.7532406 -1.1302898 1.0120839
C 0.80384344 -0.6119228 0.5007205
C 0.50531256 -0.08587958 -0.9306824
C -0.7223031 0.5846671 -0.30883443
O -1.5204778 -0.4652621 0.20084147
C -0.47197226 0.02749683 1.0337468
H 0.2923558 -0.8214417 -1.7078052
H 1.2943338 0.59823626 -1.2617552
H -1.1993129 1.5240865 -0.5634232
H -0.7350205 0.3803094 2.0251076
