10

O 2.3269997 0.48089153 0.2437699
C -0.93643504 0.017664973 -0.64910996
N 0.34746242 -0.13169613 -0.9136125
C -1.0497223 0.2824402 0.72579426
C 1.1634578 0.09558925 0.3025286
N 0.14207709 0.35306498 1.3116089
H -1.7214165 -0.14448227 -1.3775276
H -1.9677532 0.31254017 1.2981855
H 0.77654964 -0.28253934 -1.8137612
H 0.91878057 -0.9834735 0.87212396
