11

C 0.025340242 0.41858333 -0.27884606
C 1.4588735 0.4533612 0.22773188
C -3.1987004 -0.8094084 -0.6452679
O -0.36961433 -1.6069374 0.9927722
C -0.7572017 -0.7551846 0.24749388
N -2.0918806 -0.79116946 -0.2363617
H 1.9787563 1.3225034 -0.18548788
H -0.01715464 0.3703848 -1.3743219
H 2.0055304 -0.44632283 -0.06756515
H 1.4917893 0.51913154 1.318559
H -0.5257385 1.3250585 0.0012935346
