11

C 0.5940421 -2.4978325 0.5034228
C 0.28271273 0.19316383 0.38457537
C -0.19987075 -1.0684799 -0.26061878
O -0.7700361 -1.2428911 -1.2778563
C -0.09670789 1.4301151 -0.42117622
N -0.4634947 -2.3439012 1.0344553
H 0.32379076 1.3889856 -1.429389
H 0.28489953 2.3260577 0.07656103
H -0.13881928 0.20667872 1.3960395
H 1.3663716 0.0881087 0.5051532
H -1.1828882 1.5199956 -0.5111669
