11

O -1.9019281 -0.5628252 -1.1562296
C 1.0577123 -0.13210584 0.61748224
N -0.4581209 0.93422604 -0.58731383
C -0.7086863 -0.33718744 -0.35322416
O 2.1316216 -0.4438527 1.3689532
C 0.7567065 1.0998535 0.065191776
N 0.10521778 -1.0898991 0.3245981
H 2.0799937 -1.394685 1.5394615
H -2.686792 -0.6854432 -0.59344316
H 1.2897849 2.0369928 0.10911504
H -1.6655095 0.57492614 -1.3345909
