9

C -0.41977632 -0.9945957 -0.9145301
C -0.9860888 0.7825024 0.84506565
C 0.41542187 1.1275868 0.95590234
C -1.0077385 -0.094184436 -0.07684523
O 1.3465427 0.37227705 0.5612227
H 0.7795535 -0.37265682 -0.2082528
H 0.7330388 2.0843313 1.3777415
H -0.51995206 -0.88593906 -1.9929165
H -0.3410012 -2.0193214 -0.5473876
