10

C -1.5045568 1.2868927 2.5925078
C -0.73556286 -0.2991333 -0.6963923
C -0.92965674 0.7870718 1.590282
C -0.2873049 0.25006425 0.51095074
N 0.38236475 -0.66148543 -1.3683276
N 1.0929688 0.13471809 0.38317144
N 1.5014411 -0.40651575 -0.72924536
H 0.44439596 -1.0949647 -2.2770226
H 1.770079 0.43752137 1.0664009
H -1.7341683 -0.434169 -1.0723252
