10

C -0.5587675 0.64763814 0.891264
C 1.753576 0.47213787 -0.54652596
C -0.009796864 0.2363903 -0.31988442
C 0.902291 0.87686104 -1.3796079
N -1.4876163 -0.2611591 1.276312
N -0.65833074 -0.9394272 -0.5507615
N -1.5517532 -1.2111709 0.40349472
H 2.5379305 0.17348439 0.12037251
H -0.33775893 1.5265737 1.4754853
H -0.5897739 -1.5213286 -1.3701488
