10

N -0.3647165 1.5668643 -0.2605054
C 0.74159586 -1.7406402 0.08879875
C -0.88760984 -0.44081703 0.6693143
N -0.35337198 -1.7721976 0.7629495
C 0.013406502 0.19310315 -0.07831987
O 1.0748265 -0.5395786 -0.49347094
H 0.23704934 2.2654908 0.17510232
H 1.4480073 -2.5427225 -0.08666991
H -0.61886746 1.8488082 -1.2063866
H -1.2903198 1.16169 0.42918766
