10

O -1.6450186 0.76264054 -0.15119074
C 0.9930933 -0.87078965 -0.3593674
C 0.76125425 0.41927776 -0.7085682
C -0.4065814 0.45499334 0.21418633
N 0.10637228 -1.2629791 0.633083
N -0.14906397 0.0703101 1.4670415
H 1.6916608 -1.6017411 -0.7627807
H -1.6432332 0.93300927 -1.1047282
H 1.3066002 1.2119621 -1.1968147
H -1.0150837 -0.11668322 1.9691392
