11

N 0.18408073 0.23965158 2.87982788
C -0.19454673 0.03813840 1.74484053
C -0.66754862 -0.06318315 0.51784325
N -0.47605985 0.05372784 -1.85944943
C 0.22411355 -0.04669696 -0.65919581
N 1.48389194 -0.17185044 -0.51668454
H 1.96153358 -0.12258214 -1.41871708
H 0.48290890 -0.57013549 3.41732110
H -1.34835831 0.56211520 -1.83416992
H -1.73783192 -0.19428035 0.39481474
H 0.08781695 0.27509558 -2.66643066
