10

C -0.018017052 0.51463914 -0.14484718
C -0.3797616 -0.72244006 0.10139754
C -0.8811451 1.5372071 -0.64886165
C -0.6891471 -1.948424 0.35649967
N -1.5224305 2.4123468 -1.0533768
N 2.2724845 0.25730613 0.5130769
N 1.3770733 0.9523147 0.09364943
H 1.4872847 1.9590356 -0.15318789
H -1.0384855 -2.243456 1.3427011
H -0.6078556 -2.7185295 -0.40705118
