10

C -0.00017053534 -0.9028724 -0.9423389
C 0.6642203 -0.40442055 0.13921818
C 1.8700068 -0.76400757 0.81773144
C -1.1725521 -0.0070273294 -0.98848736
N -1.0221399 1.1400046 0.018064497
N 0.009079949 0.79847413 0.617255
N 2.8403633 -1.0290477 1.3935313
H 0.33910283 1.3573875 1.401863
H -1.5379392 0.3831723 -1.9396935
H -1.9899713 -0.571663 -0.5171434
