10

C -0.9312023 0.3806177 2.3673534
C -0.47482365 0.21170914 1.2663682
C 0.06598426 0.008615287 -0.033587858
C 1.3400948 0.119628996 -0.55019426
N 1.3046184 -0.19732599 -1.867409
N 0.089273565 -0.4991171 -2.2004025
N -0.6662355 -0.38034496 -1.1112561
H -1.3291692 0.5310187 3.3485951
H 2.255605 0.4027404 -0.05432635
H -1.6541455 -0.5775421 -1.1651411
