10

O 1.6895832 -0.6199326 1.4124542
C -0.17291704 0.12853843 -1.2551603
N 0.95827496 -0.27312663 -0.5705824
C 0.67077905 -0.2561466 0.7251763
C -1.1500672 0.38596886 -0.34475738
N -0.60147625 0.13483216 0.9263448
H -0.20918117 0.2039397 -2.3309913
H 2.0417652 -0.65205765 0.080786385
H -2.1710417 0.7189132 -0.4611367
H -1.0557193 0.22907104 1.8178663
