11

N -0.41510296 -0.5533048 -1.4651723
C 0.19550529 -1.2964785 -0.64207214
O 0.7734832 -0.81807333 0.46860534
C 0.69801664 0.59359884 0.63091874
C -0.73007995 1.0830343 0.8044687
O -1.0288709 2.2467337 0.7110835
H -0.7886106 -1.1001554 -2.234905
H 0.34310403 -2.3779664 -0.6931406
H 1.1584612 1.118193 -0.21038492
H 1.2555851 0.80684155 1.5479845
H -1.4614909 0.29757717 1.082614
