11

C -0.78526904 1.27515731 -0.41079975
C 0.29033300 -0.67758981 0.93634854
C 0.03725590 0.02004773 -0.30777315
N 1.04033070 -0.94312096 -2.31413779
N 0.99722847 -1.74128762 1.00863397
N 0.57589107 -0.49784471 -1.38462677
H -1.80410357 1.11043464 -0.03605142
H -0.34483939 2.08975420 0.17925082
H -0.18811453 -0.19543960 1.79790169
H -0.86101490 1.61846086 -1.44584978
H 1.04230216 -2.05857197 1.97710362
