11

C 0.21841216 0.124460734 -0.1825373
C -0.23933636 -0.9741845 0.6433137
C -0.582497 1.3726789 -0.43345115
N 2.429462 -0.12267894 -1.1872923
N 0.4562749 -2.0272443 0.85204667
N 1.405511 -0.009077349 -0.7219055
H -0.053488046 2.058631 -1.1001914
H -0.05881229 -2.6642137 1.4599855
H -1.5495942 1.1340963 -0.89539814
H -0.7877564 1.9092492 0.50231963
H -1.2381759 -0.8017174 1.0631105
