11

C -0.85265565 -1.3855883 0.466427
C 0.9967833 0.4451966 -0.045365416
C -0.34269404 -0.066397466 -0.014897608
N -0.91247076 1.960268 -0.96203643
N -1.1045518 0.8946584 -0.5441239
N 1.1954478 1.6234243 -0.5283351
H 1.7818024 -0.20242363 0.34655502
H 2.155932 1.948305 -0.5220675
H -0.028477749 -1.9397764 0.9268033
H -1.636472 -1.2751175 1.2235159
H -1.2526437 -2.002549 -0.3464754
