10

O 1.8811067 1.3935924 -1.6249833
C 0.49869418 0.23498021 -0.0868744
C -0.998355 -0.78592145 0.99838716
N 0.28540304 -0.2878138 1.0795954
O -0.5351462 0.12839448 -0.94064873
C -1.4882171 -0.52614397 -0.23777919
C 1.7324628 0.91312224 -0.52876276
H -1.4645852 -1.2893065 1.8317068
H -2.4181204 -0.7159775 -0.7504899
H 2.5067573 0.93507415 0.25984913
