9

O 1.7732638 -0.006502211 -0.5805791
C -1.1874305 0.66217864 0.53545624
C -0.48257607 -0.4239843 -1.3193061
O -1.5074111 0.21028884 -0.78207904
C 0.5234882 -0.44198415 -0.17215186
N -0.0440138 0.3542203 0.9362206
H 2.3714833 -0.0790848 0.17285936
H -1.9750782 1.217339 1.0292926
H 0.5282749 -1.4924713 0.1802872
