9

O -1.1541704 -1.2908434 -1.0798563
C -0.38082162 -0.4733304 -0.34564918
C 0.47648942 -0.7900831 0.65492034
O 1.0304837 0.3956643 1.0825201
C 0.47013393 1.3340614 0.31410974
N -0.37783882 0.88725716 -0.5554471
H -1.6330553 -0.72877234 -1.7054312
H 0.797124 -1.6919615 1.148211
H 0.7716551 2.3580081 0.4866226
