10

N -0.58909065 -1.5834627 0.48691958
C 0.06509376 1.070548 -1.272251
C -0.078268394 -0.35476896 0.6383958
N -0.3852914 0.9120741 0.036714077
C 0.6401535 0.6065326 1.1513811
O -0.027499847 0.21272753 -2.1191053
H 0.8906229 1.1843388 2.0218506
H -0.8105633 -1.8117695 -0.47441083
H -0.14508265 -2.326696 1.0058607
H 0.43992612 2.090476 -1.4753551
