10

N -0.62879760 0.48655699 -0.59122961
C -0.49314303 1.08454160 0.82700439
C -0.31666738 -0.19408218 0.63371137
N -0.12021930 -1.48408892 0.93514710
C 0.43293229 0.61514713 -1.48428311
O 1.21083488 -0.27701931 -1.73024724
H -1.07211663 1.85794737 1.29705243
H 0.40502139 -1.98682509 0.23037136
H 0.14325472 -1.69271465 1.88693251
H 0.43890039 1.59053675 -2.00445920
