10

N -0.03423438 -0.2986181 -1.1879488
C 0.6353226 -1.3141989 -0.5435675
C -1.3108482 0.13611056 -0.58152604
N 0.19186674 1.3529931 1.1446121
C -0.5310358 0.7276555 0.22374892
O 0.7545402 -1.4828699 0.6605809
H -2.327561 -0.04770699 -0.8975826
H 1.1615398 -1.9654496 -1.2617058
H 0.6515353 2.198384 0.8267432
H 0.8088747 0.6937001 1.6166457
