10

N -1.6690673 -2.7806203 0.9874571
C -0.9897514 -1.8949497 0.6945668
O -0.8884445 0.28127807 -0.17239702
C -0.08443368 -0.79920536 0.3394551
C -0.28091365 1.3062824 -0.749415
N 1.0677799 1.2730052 -0.6258931
H 0.3021681 2.1923666 -0.07971736
H 0.63625455 -1.1395844 -0.41020724
H 0.4723342 -0.47235996 1.2230026
H 1.4340736 2.0337873 -1.2068521
