10

N 0.80531454 -0.15769571 1.6812036
C -0.37942684 0.13925213 1.363979
O -0.79195106 0.20953743 0.087420486
C 0.21603303 -0.08558651 -0.8713367
C -0.3857425 0.04103385 -2.202955
N -0.81407386 0.12667842 -3.2726405
H 0.91672546 -0.15747125 2.691932
H -1.22007 0.37745166 2.0212834
H 0.5969602 -1.1013446 -0.7272316
H 1.0562313 0.6081445 -0.771655
