11

N 1.6338754 1.4410214 0.2288153
C 1.019873 -0.8277717 0.63730115
C -1.4386888 -0.17049122 -0.55445606
C 0.72307736 0.5651258 0.20689596
C 0.3453413 -1.9476672 0.680025
O -0.54770106 0.85679287 -0.1440711
H -1.3546579 -1.0688924 0.07871749
H -1.2487142 -0.4512505 -1.5941772
H 1.2760009 2.3390768 -0.09689582
H 2.0379739 -0.97168416 1.0065242
H -2.4463797 0.2357404 -0.44867885
