11

C 0.6650357 1.2735828 -0.5420998
N -0.2932841 0.17975265 -0.520349
C -0.82253647 -1.0250552 1.121615
C 0.07496279 -1.1748999 0.0078074536
N 0.8515246 -2.052994 -0.32665733
H 1.2757454 1.2553198 -1.4519899
H -1.8101176 -1.4841703 1.1445044
H -0.93790555 0.16710071 -1.3022124
H -0.48024467 -0.5346844 2.0287552
H 1.3307651 1.1610554 0.31802484
H 0.14605482 2.2349923 -0.47739843
