11

C 0.70967374 -0.42061930 -1.58579704
N 0.77690769 -0.00795115 -0.19586194
C -0.34357150 0.06472873 0.54879396
C -1.00219741 0.42888375 1.77248105
N -1.55801582 -0.27401811 0.54203610
H 1.54733612 0.55733587 0.11333570
H 1.68462615 -0.80463062 -1.89736621
H -0.87399046 -0.17320158 2.67335720
H 0.41641090 0.39851858 -2.25329244
H -0.02654518 -1.22324910 -1.67080911
H -1.33063408 1.45420314 1.95312317
