11

C 1.3800206 0.0060263746 0.023328634
N 0.23998567 -0.622003 -0.6311237
C -0.99772793 -0.49962038 0.11001021
C -1.4290901 0.90212923 0.33867404
N -1.7071388 2.0154967 0.46947515
H 1.2489924 1.0827475 0.21022089
H 2.2666373 -0.13624862 -0.60115016
H 1.5622054 -0.4917724 0.98249227
H 0.115417466 -0.24169962 -1.5618052
H -1.7956023 -1.0257577 -0.4241079
H -0.88369954 -0.98929787 1.0839862
