9

O -0.58821905 -1.9520254 -0.2772295
C -0.5804784 0.3273546 0.6044872
N 0.9549536 -0.27468023 -0.8885973
N 1.1864985 0.9730427 -0.5933676
N 0.27473548 1.3398683 0.29830682
C -0.11207033 -0.6993674 -0.17941593
H 0.28912276 2.2834952 0.65001506
H -0.032513723 -2.4148393 -0.92045045
H -1.3920288 0.4171511 1.3062515
