9

O -1.85123044 -0.88094692 -0.17360625
C -0.61882491 -0.34559741 -0.17743359
N 0.20493793 -0.43638877 -1.24280169
N 1.32339284 0.17028099 -0.96245093
N 1.21340973 0.64261071 0.27276745
C 0.00635065 0.35143361 0.82823614
H 1.98640362 1.15101714 0.67068799
H -1.98042695 -1.29591361 -1.03838900
H -0.28401236 0.64350434 1.82298968
