12

N 0.28923650 1.74849124 -0.98933085
C -0.56130291 -1.27731454 0.97292574
O 1.17496355 0.96414758 0.98248535
N -0.50424830 -0.22835876 -0.07747286
C 0.41145132 0.86519890 0.05446385
C 0.03222822 -1.75714516 -0.29927014
H -1.59479120 -1.54335615 1.20060297
H 0.01000503 -0.97237737 1.85023541
H -0.03443664 1.39604913 -1.87670272
H 1.00492472 2.46169160 -1.02138991
H -1.34923324 -0.03897501 -0.60098475
H 1.12120276 -1.61805124 -0.19556224
