12

N -0.29360172 -0.8338601 1.7688636
C 0.09930007 0.29238522 1.0848311
O 0.8507592 1.1318063 1.5302693
N -0.49739912 0.3753336 -0.18534575
C 0.2703243 0.9350674 -1.274273
C -0.069109775 -0.5117662 -1.2558432
H -1.1427829 -1.2906928 1.4763181
H -0.10642184 -0.818357 2.760062
H -0.27458394 1.6107472 -1.926893
H 1.2967601 1.217314 -1.0514042
H -0.86680675 -0.8961262 -1.8883995
H 0.7335622 -1.2118512 -1.0381856
