12

N 1.6234279 0.864672 -0.8581836
C -1.2191807 -1.2539366 -0.34554574
O 1.3354363 -0.07896949 1.2189221
N -0.4900456 0.2003341 -0.17926978
C 0.8981851 0.29742151 0.16009876
C -1.4565784 -0.3491775 0.8059977
H 1.2863476 0.7551524 -1.8020008
H -0.4103526 -1.934938 -0.032492723
H -0.83219784 0.8791961 -0.8471086
H -2.3722212 0.24409343 0.8244632
H -0.98835367 -0.45230192 1.7853764
H 2.6255333 0.82845396 -0.73025715
