12

N -0.06543884 1.8076341 0.8918516
C -0.20495641 0.4524738 0.82665324
O -0.9176232 -0.21556488 1.5394561
N 0.61178017 -0.10515586 -0.20748727
C -0.35354686 -0.70885915 -1.5693058
C 0.38844845 -1.5041878 -0.5567352
H -1.3789434 -0.5602842 -1.1989536
H 0.73343706 2.2496347 0.4632303
H -0.18208413 -2.0137265 0.21651655
H -0.4951294 2.2641401 1.679186
H 0.56052375 0.3513559 -1.2395709
H 1.3035328 -2.0174599 -0.8448412
