12

C 0.87413976 1.19518987 1.05508917
C 0.10063586 0.30636405 0.42226105
N -0.92280321 -0.44836286 1.01379981
N 0.28471688 0.01079203 -0.93047788
C -0.15944987 -1.10400792 -1.59764911
O 0.07831177 -1.30871454 -2.76758766
H 0.66372789 1.48186427 2.07996524
H 0.91277872 0.60114311 -1.45904473
H -0.99768179 -0.25835307 2.00550135
H 1.73374684 1.64002085 0.56661697
H -1.82466564 -0.33095920 0.56894780
H -0.74345694 -1.78497675 -0.95742204
