10

N 0.014546629 -1.732847 -0.12698856
C -0.18387263 0.6336926 -0.14804298
O 1.3156421 -0.505775 1.3044323
C 0.47227347 -0.59422165 0.4326461
O -1.0645359 0.5977691 -1.0928727
N 0.007907312 1.8671883 0.18100461
H -0.6886818 -1.6920853 -0.8476066
H 0.6530486 2.1704257 0.89872414
H 0.38251382 -2.613641 0.19402815
H -0.90884185 1.8694943 -0.79532444
