11

C 0.32877403 0.78545684 0.38672778
C -0.36837783 -0.8758191 -1.4535837
C 0.03352089 -0.6518299 -0.016165016
C 0.27711207 -1.5691646 0.8750102
O 0.6468805 1.6030127 -0.45161617
N 0.20783277 1.0593033 1.7084122
H -0.35429245 -1.9343175 -1.7125866
H -1.3716754 -0.47093564 -1.6262493
H 0.33176082 -0.32368618 -2.0877671
H 0.4230591 1.9935378 2.0185502
H -0.15459448 0.38444212 2.3592677
