11

C -0.24836344 0.41852447 0.17882767
C 0.34342712 -0.26023105 1.0031396
C -0.5745099 1.1029056 -1.178832
C 1.1825073 -1.0227576 1.9179213
O -1.5285556 1.0351126 -0.24182801
N -1.0115987 0.8697851 -2.4167864
H -0.37472624 0.8793626 -3.1953082
H 0.95820284 -2.0922434 1.84107
H 2.2523806 -0.88761026 1.7168136
H 0.9987042 -0.7228287 2.9563007
H -1.9974681 0.6799803 -2.581318
