11

C -0.7310097 -0.17078295 -2.315615
C -0.16548023 -0.12276734 -0.96896523
C 0.3178247 -0.08826056 0.13360989
C 0.97799563 -0.10061594 1.439184
O 2.0843 -0.56994057 1.6112968
N 0.24648674 0.47370985 2.4373715
H 0.009680204 0.15297157 -3.051359
H -1.6066743 0.47839966 -2.4001505
H -1.0323268 -1.1913317 -2.5636668
H 0.6154758 0.40280953 3.3734708
H -0.71627176 0.7358085 2.3048232
