11

C 0.7826231 -2.2631369 -1.4182583
C -0.15530235 1.9605044 0.65478617
C 0.27334997 -1.1653366 -0.5945801
C -0.1319355 -0.2556703 0.06868916
O -0.64588577 0.68308085 0.8517854
N -0.8037775 2.6983778 1.550525
H 1.7215396 -1.968784 -1.8975677
H 0.06486397 -2.5277932 -2.2018197
H -1.4847133 2.3083763 2.1993024
H 0.97300655 -3.1524744 -0.8079026
H -0.5937688 3.6828558 1.5950401
