10

N 0.907193 1.9234936 -1.8482488
C 0.3557399 1.0784115 -1.2832154
C -0.32691786 0.023228407 -0.57243747
C -0.482858 0.12117564 0.92867553
C 0.46471837 -0.877629 0.34961343
H -1.1445035 -0.42911842 -1.1264354
H -1.4231648 -0.2273359 1.3445392
H -0.069300614 0.9990837 1.4128076
H 0.19033872 -1.9276748 0.35857788
H 1.5287548 -0.6836349 0.43612352
