10

N 0.87725767 -1.29523966 -1.64190852
C 0.58653313 0.28377876 0.35351580
C -0.79211837 1.04768868 0.36627364
C -0.66546284 -0.06338218 1.26852464
C 0.75179854 -0.55523390 -0.69376613
H -1.37399027 1.04314774 -0.56122891
H -1.18116555 -0.96003696 0.89844312
H -0.58454590 2.06242189 0.72396641
H 0.91059680 -2.30001189 -1.51092029
H 1.47109680 0.73686736 0.79710033
