10

N 0.89714676 -2.0758426 -0.17057429
C -0.4092092 0.9898441 0.9532939
C -0.96241 0.89257574 -0.36923575
C 0.5442788 0.4606897 -0.20260923
C 0.7441884 -0.87634146 -0.18167676
H -0.96544707 1.7731968 -1.021318
H -0.73195404 0.16291653 1.6005388
H 1.3439704 1.096832 -0.57721
H -1.6680363 0.124429405 -0.70225114
H 1.2074722 -2.5483003 0.6710423
