11

N 1.3450198 0.5692575 1.8400371
C 0.6410918 0.26554614 0.8365049
C -0.76916695 -0.17800273 0.85400885
C -1.1564714 -0.39662004 -0.3971504
C -0.011787727 -0.10695301 -1.3250589
O 1.0567586 0.29463392 -0.46653435
H 2.284118 0.84405524 1.5552639
H -1.3328371 -0.28328404 1.7703518
H -2.1281111 -0.726539 -0.7423473
H -0.23055302 0.7046793 -2.0268698
H 0.30193904 -0.98677343 -1.8982056
