11

N -0.8088802 1.9465444 1.4500935
C 0.6097341 -1.573615 -0.7409664
C 0.17638662 -0.2951675 -0.90843356
C -0.36867937 0.7894497 1.0888427
C -0.25448638 0.84786624 -0.51798296
O -0.04105317 -0.2759252 1.6327301
H 0.51304704 -0.9344792 -1.9777442
H -0.88337743 1.9318608 2.4689953
H -0.52183795 1.7458339 -1.0581628
H 1.6719166 -1.7798712 -0.63310647
H -0.0927698 -2.4024968 -0.8042652
