12

C 0.19930719 0.78881145 -0.047695737
C 0.5272844 0.18876712 1.3022817
N 0.3889041 1.9850844 -0.42563075
N -0.37920445 -0.086836234 -0.9642954
C -0.6970478 -1.3492302 -0.8922981
O -1.1915075 -1.6940418 -2.0170274
H -0.3762002 -0.19383773 1.7884526
H 0.9751001 0.9436191 1.9510416
H -0.5900257 -2.0370495 -0.052378256
H 0.8125445 2.5256352 0.323386
H 1.2342405 -0.64123434 1.1975222
H -0.90339506 -0.42968756 -2.1633587
