12

C 1.0717387 0.19229722 0.7824865
C -0.31729746 0.59383816 0.34960014
N -1.0154272 1.5495286 0.8091831
N -0.9070594 -0.1697624 -0.6681152
C -0.3928993 -1.2457621 -1.342818
O -0.9932093 -1.8408624 -2.2076526
H 1.411049 0.8590999 1.5787404
H 1.7827961 0.25944695 -0.047655873
H 1.0884535 -0.8333047 1.165456
H -0.51177675 2.045026 1.5399609
H -1.8438601 0.11838614 -0.9295234
H 0.6274924 -1.5279316 -1.0296621
