13

C 0.43683006 -0.92113114 -1.34837846
C -0.29678848 -0.23617978 -0.23588862
O -1.67942831 -0.43244691 -0.18081867
C 0.24343099 0.55688197 0.69251249
O 1.53321542 0.99441007 0.69255592
N -0.43452290 1.00917043 1.82213865
H 1.52324855 -0.84578741 -1.23681034
H 0.19520981 -1.99339032 -1.35588616
H -1.41782891 0.78794283 1.74551765
H 0.15456443 -0.52120414 -2.33032017
H -1.83558705 -1.37103678 -0.01438869
H -0.30066886 2.00782762 1.95482547
H 1.87832520 0.96494318 -0.20505918
