13

C 0.19966288 -1.5210512 -0.5982547
C -0.20652705 -0.05641196 -0.5835385
O -1.5716822 0.13132395 -0.23365687
C 0.73408914 0.76852214 0.30372512
O 1.9401271 0.61962837 0.26461136
N 0.09647715 1.656338 1.110185
H 1.2494726 -1.6146476 -0.8838178
H -0.42510566 -2.074643 -1.3053913
H 0.081672944 -1.9674324 0.39763
H -0.11074647 0.35860583 -1.5919051
H -1.7544417 -0.43573293 0.52563614
H -0.88905317 1.8132834 0.97459203
H 0.6560544 2.322217 1.6201845
