13

C -0.15442298 -1.1393894 1.1718439
C -0.3690338 0.31600377 -0.8482716
O -0.7659725 -0.53507835 -1.7263975
C 0.53622633 -0.33049592 0.08080945
O 1.4165787 0.6138504 0.69491875
N -0.6833925 1.6047091 -0.91713417
H -1.0024608 -1.7064004 0.77350116
H 0.5494164 -1.8522048 1.6119426
H -0.31797352 2.2072988 -0.20001796
H -0.5166749 -0.48825228 1.9831733
H 2.2990837 0.45864812 0.33568785
H -1.1361907 1.9831461 -1.7338474
H 0.14481662 -1.1318353 -1.2262087
