10

O -0.8721244 1.2116762 0.82573336
C -1.1723642 -1.3294629 0.05208147
N 0.18741149 -0.7268131 0.024463149
C -0.7352415 -1.0507127 -1.1094221
C 0.12885223 0.66238856 0.4213308
N 1.3523216 1.2297764 0.3111793
H -1.835493 -1.7450923 0.7860424
H 1.4872128 2.1459358 0.7091499
H 2.1521237 0.63398606 0.161639
H -0.69269866 -1.0316821 -2.1821976
