10

O 1.2155979 -0.99077606 -0.2447371
C -1.5600774 -0.06377527 -0.7088594
N -0.5591993 0.5693767 -0.06062087
C 0.66617864 -0.031862993 0.27650523
C -0.9739886 -0.5766176 -1.7800455
N 1.2177565 0.6425419 1.324839
H -2.6082423 0.1223563 -0.48733407
H 0.6734518 1.3168709 1.8370626
H -0.121666126 -1.2365874 -1.8874264
H 2.0501885 0.2484735 1.7306165
