12

C -0.46168157 0.39492157 -0.024464147
N 0.2024501 0.49763507 1.213022
C -0.98190784 -1.202981 -1.7694793
N -0.41001585 -0.77910453 -0.6598304
C 1.4239514 1.1060305 1.3612357
O 1.9582309 1.3243121 2.4278421
H -1.1337571 1.1646047 -0.38159627
H -0.27783173 0.31590208 2.088217
H 0.1991974 -1.4489272 -0.1971245
H -1.6485512 -0.54761094 -2.3142543
H 1.8703904 1.3669372 0.38596022
H -0.7404747 -2.1917195 -2.129528
