11

C -0.77729946 -0.067613654 -0.39839983
C 0.97902507 0.6646139 1.0358979
C -1.051666 -1.0851009 -1.4548676
O -1.2871019 -0.37670097 0.80161303
C 0.7050329 0.092249855 -0.19862491
N -1.258522 -1.8665451 -2.2826264
H 0.40578723 1.5486165 1.333253
H 0.006165282 -0.115971394 1.4135114
H 1.9922253 0.6292191 1.429337
H 1.434218 -0.32929635 -0.88721025
H -1.1478647 0.906529 -0.7918835
