12

C -0.35030594 -1.1043692 0.97983867
C -0.25985193 -0.6287884 -0.4682309
N -0.26396197 0.8211697 -0.5830321
C 0.87786293 1.5492058 -0.49430048
O 1.9953669 1.0801325 -0.40673205
H -0.34550324 -2.1979208 1.0242565
H -1.2706574 -0.74618214 1.4547926
H 0.50498956 -0.72766966 1.5496027
H -1.0952669 -1.0152425 -1.0603865
H 0.6700318 -0.9807711 -0.92442036
H -1.144701 1.31172 -0.5392729
H 0.6819973 2.638716 -0.53211534
