11

N 0.637974 -1.8437715 0.41232547
C -0.57896256 0.123517655 1.3378751
C 0.13701367 -0.5277328 0.28443557
N 0.92080444 0.16322336 -0.7208917
C 0.14662267 2.3668253 -1.3299974
N 0.44596636 1.2490528 -1.0711211
N -1.3337014 -0.21845816 0.37144184
H -0.6800083 0.60213286 2.3026927
H 0.042342406 -2.41439 1.0010532
H 0.7538514 -2.2785335 -0.49481204
H -0.4919027 2.7781336 -2.0930018
