11

N -1.17101228 -1.10908829 -1.54726566
C 0.81305028 -0.60121190 -0.13556994
C -0.59865005 -0.42367297 -0.66117084
C -0.26008203 1.14684383 0.88761228
C 0.90135693 0.50390021 0.87907894
O -1.18728199 0.64098387 -0.00231273
H 1.53507394 -0.50536870 -0.95321215
H 0.93316308 -1.60195515 0.29342996
H -2.11621943 -0.77614471 -1.71803080
H -0.60984093 1.99290524 1.46476418
H 1.76044233 0.73280874 1.49267650
