11

N -1.4967606 -1.1157668 0.74019206
C -0.56833136 0.76236415 -0.112565406
C -0.45228776 -0.6542716 0.10489321
C 0.8582348 1.1268479 -0.26458165
C 1.5745054 -0.0071622697 -0.27035865
O 0.766454 -1.1496253 -0.06997381
H 2.6231437 -0.23061584 -0.3795052
H -1.715963 -2.100761 0.82562464
H 1.2758286 2.11137 -0.43078676
H -1.2237926 1.0467075 -0.937501
H -1.6410313 0.21091308 0.7945625
