11

N 1.8462522 -0.113864906 -1.4359975
C 0.59823495 -0.13299729 -0.86690736
N -0.5447279 -0.2463033 -1.44237
N -1.5014507 -0.06811364 -0.43218964
C -0.8341147 0.09407047 0.65497994
N -1.2979984 0.19363637 1.9417824
O 0.51455104 0.07939291 0.47465885
H 2.5453513 -0.64832157 -0.939143
H 1.8060243 -0.3505462 -2.4176373
H -0.82911676 0.8930092 2.5014873
H -2.3030052 0.30003795 1.9613366
