11

N 0.8648569 0.112698585 1.0900477
C 0.20136791 0.9222651 0.33535177
N 0.6131472 -1.1264634 0.51994693
N 0.066472635 2.2767587 0.44502237
C -0.28226992 -0.9941049 -0.42650813
N -0.8166674 -2.1646016 -0.68917465
O -0.53183657 0.31122893 -0.6700671
H 0.06038883 2.7695425 -0.4363292
H 0.71954286 2.663583 1.1108216
H 0.17535351 -2.3497574 0.35660446
H -1.070356 -2.4211493 -1.6357156
