11

N 2.38507147 -0.17786190 -0.74896868
C 1.14145318 -0.16567045 -0.52511293
N 0.01183752 -0.46134637 -1.26622605
N -1.15720859 -0.13984220 -0.57052355
C -0.70890778 0.19413637 0.58079070
N -1.42733497 0.60458774 1.66049379
O 0.63914966 0.17811754 0.71489927
H 2.58182795 -0.46688651 -1.70191445
H -0.01669546 -0.36299248 -2.26675058
H -1.03417050 0.37080270 2.55944629
H -2.41502235 0.42695554 1.56386649
