10

O -1.6860595 -0.5957384 -1.5287292
C -0.8051092 -0.26702553 -0.778746
C -0.37628937 -0.61763895 0.6603116
C 0.77108425 0.4000341 0.44505236
N 0.24160115 0.6084058 -0.9007865
H -1.1101136 -0.34950614 1.4227371
H -0.06562722 -1.6567669 0.78949213
H 0.7274832 1.2877985 1.0811273
H 1.7787092 -0.024554206 0.46589503
H 0.5243209 1.2149915 -1.6563542
