10

O 0.08760908 0.9933355 2.5856006
C -0.46595016 0.47523004 0.30837035
C 0.38845584 -0.40198067 -1.6430801
N -0.29457808 0.5996926 -0.9080321
C -0.70506066 0.47882077 1.5992482
N 0.065125115 -1.6200912 -1.5869006
H 0.7480469 1.5788367 2.195178
H 1.1466293 0.03378452 -2.3017862
H 0.6343543 -2.1557024 -2.239494
H -1.6046317 0.018074121 1.990896
