11

N -0.42396548 -1.6478571 -1.0672479
C -0.23225096 -0.4883248 -0.35722926
C 1.0145159 -0.13246135 0.19974793
N 1.1631135 1.0154276 0.82310635
C 0.06526518 1.789184 0.87320113
N -1.1222998 1.4919926 0.3734602
N -1.2766378 0.32561177 -0.24843967
H 0.17554882 -2.4306445 -0.86241794
H -1.3917536 -1.8826647 -1.2340735
H 1.8786161 -0.7895663 0.12905061
H 0.14984818 2.7493026 1.370842
