11

N 3.0412476 0.052214924 0.064936176
C -0.4094117 0.047983196 0.053721525
C -1.5192147 0.60614645 0.8517055
N 4.09254 0.30834928 0.40101215
C 1.8329946 -0.24244682 -0.3226991
N -2.669253 0.2308503 0.32756045
N 0.79984397 0.30905396 0.38448435
H -3.531081 0.5416405 0.7558714
H -2.7762141 -0.35811543 -0.49951735
H -0.61811244 -0.59593004 -0.8309567
H 1.7566613 -0.89974636 -1.1861185
