10

C 0.24029756 -0.97612584 0.78345954
N 0.0008871982 0.14599076 0.089968026
N 0.21586446 1.1911184 0.90412706
C -0.3663319 0.34842223 -1.2984548
N 0.5604272 0.7032602 2.0386767
N 0.5856369 -0.6459249 2.0048525
H -0.9622249 -0.4979524 -1.6409721
H 0.15005536 -1.9782072 0.39198327
H -0.95419437 1.26378 -1.3595606
H 0.5295825 0.44563875 -1.9140799
