10

C -1.03169903 -0.12339850 -0.92841363
N -0.06279528 0.09446426 0.12861412
N -0.32330981 0.94122142 1.13682860
C 1.17806742 -0.38376846 0.29875137
N 0.72188233 0.95490096 1.87933668
N 1.68057769 0.13952489 1.39133555
H -0.90436624 -1.12784072 -1.33293652
H 1.66599494 -1.08934849 -0.35672398
H -0.89736107 0.61589868 -1.71993175
H -2.02699098 -0.02165419 -0.49686054
