12

N -0.9291531 2.0786529 1.7896323
C -0.8583428 1.2746636 0.96437645
C -0.76044536 0.22298367 -0.065507725
C 0.39482605 0.47465125 -1.0843146
N 1.4855888 -0.41167614 -0.6841139
C 1.0055094 -1.19625 0.1942884
N -0.3449114 -1.0557474 0.50980264
H -1.7333161 0.13430347 -0.5590561
H 0.07096564 0.21969423 -2.0974176
H 0.7285199 1.5155891 -1.0886048
H 1.5749995 -1.9921286 0.6655339
H -0.63424075 -1.2647362 1.455381
