12

N -1.52352638 0.82471894 2.03392297
C -1.25215222 0.93022947 0.90450258
C -0.97900082 1.07375258 -0.44527406
C -0.16249654 0.10117736 -1.20598951
N 1.64918858 -0.32519294 0.72549944
C 0.76391866 -1.22082497 0.46796634
N -0.05894973 -1.16102473 -0.60161840
H -1.40781520 1.94571234 -0.93251994
H -0.64278393 -0.00362731 -2.19849306
H 0.83207500 0.53569493 -1.38295186
H 0.62066834 -2.13027690 1.06373455
H 2.16087403 -0.57033888 1.57122092
