12

N -1.4554783 0.87414163 2.0629096
C -1.3533803 0.77467567 0.9053046
C -0.31877944 -0.22979392 -1.1561259
C 1.1239609 -0.8458428 0.5605708
N 0.2027795 -1.247042 -0.34229353
C -1.2850301 0.6594102 -0.4727918
N 1.74469 0.27689412 0.48094627
H 1.3101361 -1.595343 1.3391281
H -0.85851514 -0.6819904 -2.0110686
H -1.9936715 1.256605 -1.0409378
H 0.4870027 0.38466445 -1.5832673
H 2.3962853 0.37362117 1.2576256
