11

O 1.3686603 1.2005514 -0.42147243
C 0.6964674 0.21445598 0.31033877
C -0.79437524 0.5254199 0.5844551
N -1.1143055 -0.714977 -0.12653661
C 0.16859515 -0.9704803 -0.52266896
O 0.66930354 -1.7671322 -1.2757494
H 1.9742451 0.7518975 -1.0262643
H 1.252257 -0.097038805 1.2055012
H -1.1009198 0.53058374 1.63232
H -1.127322 1.4318217 0.07326145
H -1.9926058 -1.105102 -0.43318465
