11

O 1.23705142 1.68995039 -0.01609907
C 0.25506512 0.96057990 -0.13945950
C -1.14283032 -0.46775833 0.24960175
N -1.05410796 1.00644443 0.38590643
C 0.12600024 -0.38546566 -0.62231925
O 1.50074152 -1.00695854 -0.08824002
H 1.88564565 -1.46059727 -0.85095550
H 2.01464813 -0.16638544 0.06843027
H -1.02926411 -0.94905678 1.22731408
H -1.76470211 1.63685724 0.04121181
H -2.02824742 -0.85761003 -0.25539083
