11

O 1.185918 1.4344115 -0.41040653
C 0.73010767 -0.23708338 -0.36367336
C -0.70831454 -0.15590358 -0.78350765
N -1.1251553 -0.8301305 0.3378977
C 0.1634151 -0.6458381 1.0159113
O -1.2826042 0.39856803 -1.6946294
H -2.047835 -1.0238334 0.6932687
H 1.7508175 0.68495584 -0.89160305
H 0.5730267 1.7626598 -1.0975081
H 0.6002244 -1.552785 1.4434923
H 0.16039959 0.16497879 1.7507583
