11

O -0.59270572 1.22910253 -1.94020886
C 0.71998101 -1.24251641 0.64921405
C -0.02934084 -0.25860567 -0.21841165
C 0.18257168 0.39849199 -1.51910308
N 0.57858927 -0.64935979 1.77989119
C -0.12080816 0.45633151 1.08452304
N -1.32012854 -0.05501853 0.50340292
H 1.09114464 0.10905677 -2.07966279
H 0.07143553 1.50382308 1.28582761
H -1.79394894 0.70063535 -0.00770967
H 1.21320995 -2.19194099 0.46223725
