11

O -1.2450011 1.6812552 -1.1179252
C 0.00615504 -0.1306226 -0.31359413
C 1.1414106 -1.0862622 -0.030246796
C -0.050563157 -0.13195865 1.1743311
N -1.1418347 -0.7011798 0.45137706
C -0.20679845 1.0576258 -1.1569203
N 1.0412846 -1.1306754 1.2496983
H 0.632885 1.3598826 -1.8104318
H -0.1266287 0.7200166 1.8399676
H 1.8395116 -1.6365027 -0.6543722
H -1.8904206 -0.0015788885 0.3681162
