11

N 0.48647428 -1.7067983 0.30868393
C -0.19348177 0.6327558 0.7071979
O -0.5767872 -0.29667425 -1.2783902
C -0.20376243 -0.6677159 -0.07444019
C -0.36543724 1.1415672 -0.7989106
O 0.9607166 0.65861416 1.3214245
H 1.0056359 -1.2854441 1.1173948
H 0.5837935 1.4661158 -1.2200434
H -1.2204996 1.7545365 -1.0834979
H -1.1377435 0.82717955 1.258843
H 0.6610915 -2.5241365 -0.2582619
