11

C -0.15482610 0.93512169 -0.42278389
C 1.02728511 0.29438466 -1.03185631
O -1.64572577 -0.46316629 -0.16159198
C 0.05566583 -0.89814831 1.39907448
C -0.71589796 0.16967152 0.74088107
N 0.72828923 -1.67394864 1.93239677
H -1.21141698 0.76955656 1.51161932
H 1.08167264 0.48051022 -2.10671591
H -2.23196421 0.23762841 -0.48638248
H 1.83428744 0.90489472 -0.58137680
H 1.23263100 -0.75650461 -0.79326431
