11

O 0.33363593 -0.5032032 0.61581975
C -0.6704031 -1.2788273 1.0446516
N -1.8442423 -1.2095762 0.58118564
C -0.026986722 0.41707274 -0.42227605
C 1.1566443 1.187415 -0.7916112
C 2.1010742 1.8479851 -1.1313614
H -0.4165655 -0.13980918 -1.2807077
H -0.30258077 -1.9471532 1.8296531
H -0.8254533 1.0742437 -0.06303627
H 2.9396036 2.4354045 -1.433548
H -2.4447267 -1.883552 1.0512303
