13

N 0.9872555 1.1315072 0.44043386
C -0.49726927 -0.8575753 -0.05642725
C -1.3907402 1.4849261 -0.042940147
N -2.2664313 2.2184465 0.1733107
C -0.31403673 0.60998404 -0.32688555
N 0.765581 -1.5501015 -0.33723843
H -0.7243908 -1.0476042 1.0057412
H 1.5632769 0.2970718 0.5602889
H 0.81496674 1.6721785 1.2863148
H -1.3557519 -1.2147602 -0.64426315
H 0.7947451 1.3306707 -0.681528
H 0.7137816 -2.518989 -0.033075456
H 0.9090131 -1.5557538 -1.3437315
