14

C 1.117554 -1.1499985 -1.8028146
N 0.1032367 -1.5361663 -0.025892807
C -0.868286 1.7766007 1.2060782
O 0.42521256 0.46072122 -0.8340998
N -0.5689063 0.36157554 1.2261002
C -0.023328027 -0.2441426 0.11878299
H -1.8051809 2.0052934 0.68228704
H 2.118425 -1.1253977 -1.3914618
H -0.055620752 2.2954724 0.693647
H 0.7652584 -2.1480873 -2.0387557
H -1.1459708 -0.22564703 1.8048346
H 0.95712036 -0.45504957 -2.6216152
H -0.9336446 2.14676 2.2321732
H -0.08586962 -2.161934 0.7507364
