11

O -0.5370467 -1.3773706 -1.0093806
N 0.40406883 1.297863 0.7369036
C -0.67457867 0.036981147 -1.2364923
C 0.13651706 -1.1864432 0.25452572
O 1.0713571 1.1772696 1.9521834
C 0.031750746 0.29721984 0.06380491
H -0.1479498 0.3705662 -2.136436
H -0.42959484 -1.592706 1.1012427
H -1.7229545 0.35124928 -1.2802281
H 0.7136837 2.2169645 1.2949973
H 1.154747 -1.5915939 0.25887918
