9

N 1.38275535 -0.17085776 -1.12548600
C 0.07748655 -0.00477638 -0.91248319
N -0.20772145 0.02556606 0.42077292
C -1.51192013 0.19075463 0.86527749
O -1.81012834 0.22220303 2.03202167
H 1.71192482 -0.21333792 -2.07591445
H -2.21570741 0.28620966 0.02530821
H 2.09574618 -0.26818632 -0.40432669
H 0.47756448 -0.06757498 1.17482934
