10

O 0.7125611 1.4096704 -1.3877026
C 0.29867384 0.52889585 -0.4628574
C 0.8050026 -0.41080034 0.35143685
C -0.61533296 -0.67628807 0.8137958
N -1.0496004 0.46370402 -0.06364668
H 1.7877028 -0.70439243 0.6920492
H -0.8354662 -0.48658502 1.8676689
H -1.7074887 0.20994359 -0.79640317
H -1.0581537 -1.6288984 0.5026406
H 1.6621017 1.2947503 -1.5169816
