11

N 1.3654526 -0.62379724 -1.7553382
C -0.37276283 0.79650587 0.99540514
N -1.2732524 0.096492805 1.797041
N 1.3631914 -1.5978682 -0.97934216
C -0.1100583 0.5816429 -0.27195516
C 0.31733468 0.32367098 -1.4813775
H 0.20770895 1.5527668 1.5239881
H -1.733194 0.6585762 2.496248
H -1.9240078 -0.47711986 1.2815319
H -0.01630808 0.8593216 -2.3660512
H 2.1758955 -2.170192 -1.2401502
