11

N 1.4747629 0.3701587 1.3593415
C 0.43570876 0.20040527 0.44122434
N -0.27822122 1.232124 0.026249196
N -1.2149776 0.6851825 -0.77851176
C -1.0991364 -0.65231496 -0.89038056
C -0.030280793 -1.0224719 -0.10543739
H 2.2842646 -0.19845782 1.1516163
H 1.7342774 1.3441341 1.4412811
H -1.8895823 1.2908705 -1.2125975
H -1.7742027 -1.234902 -1.5002022
H 0.3573874 -2.0147283 0.06741696
