10

O -0.383219 1.6360452 -1.2185417
C -0.17032978 0.60644597 -0.35642833
C 0.5166775 -0.5736332 -0.5351658
N 0.4094811 -1.2353963 0.651306
N -0.28699762 -0.56699693 1.5693146
C -0.6493523 0.5585067 0.9715541
H -0.03361275 1.398833 -2.0837307
H 1.0499958 -0.9841842 -1.3787295
H 0.7858782 -2.137749 0.88407123
H -1.2385212 1.2981288 1.4963498
