11

C 0.87941784 0.040464632 -0.7853623
N -0.9432845 -0.28203362 0.53512174
C -1.0588036 0.9728941 -0.02981484
O 0.046701416 1.201161 -0.7915328
C 0.42494896 -0.7497836 0.44955343
O -1.959701 1.7559483 0.090303496
H 0.48313764 -1.8283026 0.29177892
H -1.509484 -0.45971766 1.3503727
H 1.0106442 -0.48635435 1.3378655
H 0.70440143 -0.5217637 -1.7073746
H 1.9220216 0.3574876 -0.7409111
