9

O -0.24204086 0.7115235 1.9955688
C -0.7816865 -0.3174488 -0.08747105
N -0.6110911 -0.20031899 -1.3712602
N 1.4129602 -0.07189516 0.46622437
N 0.5303514 -0.33196223 -1.8946636
C 0.26528043 0.20435224 0.8381918
H -1.5871038 -0.9425736 0.2885679
H 0.49673676 0.11670168 -2.820072
H 0.5165934 0.83162147 2.584914
