9

O 1.42540975 0.13871623 1.53242225
C 0.93238356 0.11393312 0.31336694
N -1.62886389 -0.80511864 -0.06620068
N -1.39863033 0.26666297 -0.65203292
N 1.05487356 -0.43039376 -0.81317552
C -0.00687447 0.64831439 -0.62032384
H -2.63697106 -0.98083502 -0.16421181
H 2.10790685 -0.54843351 1.59956421
H 0.15076611 1.59715433 -1.12940851
