11

N -1.5634226 0.5975564 0.124402836
C 1.7752733 -0.03235307 -0.7421295
C -0.18934661 0.0806442 0.012493226
C 0.39812785 -0.93963593 0.6999362
C 0.6561409 0.7162224 -0.9481311
O 1.6503401 -1.031658 0.2395828
H -2.2927957 -0.07655904 -0.116069384
H -1.5222281 1.3374635 -0.6012525
H -1.7856463 1.0171124 1.0301166
H 2.7678163 -0.031802267 -1.1740485
H 0.10574068 -1.6369905 1.4750992
