11

N 0.5615937 -1.4125351 -1.3633894
C 0.17464569 -0.4399422 -0.45006812
C -1.0227818 0.10314427 -0.10634496
C -0.7118937 1.1329086 0.8548632
C 0.62869614 1.1203742 1.011533
O 1.1891714 0.15543208 0.2127834
H 1.4312578 -1.861095 -1.1067659
H -0.16270925 -2.0957904 -1.5375319
H -1.9954901 -0.17381643 -0.48226225
H -1.413159 1.783032 1.3548558
H 1.3206692 1.6882882 1.6123269
