12

C -0.349986 -1.1033599 0.97939295
C -0.26064983 -0.629085 -0.4692821
N -0.26435268 0.8184974 -0.5854164
C 0.8767843 1.5500753 -0.49388728
O 1.9954951 1.0843295 -0.4088141
H -0.34454435 -2.1960826 1.0253408
H -1.2701308 -0.74579823 1.4563442
H 0.50715685 -0.7269451 1.5460864
H -1.0956756 -1.018387 -1.0601406
H 0.669741 -0.9807648 -0.92564034
H -1.1435494 1.3091215 -0.5370042
H 0.6797115 2.6383991 -0.52697957
