10

N 0.43568307 0.8679113 -0.8716255
C -0.2806683 -0.593891 0.9073465
O 0.8489466 1.4125273 1.3611205
C -0.6205928 -0.9700581 -1.358881
C 0.4158734 0.714502 0.4484316
N -0.77041185 -1.3461154 -0.26636714
H 0.8981545 1.7233384 -1.1647025
H 0.415806 -1.2348745 1.4516611
H -0.21085775 -0.20240949 -2.0602705
H -1.131933 -0.37093055 1.5532871
