10

N -1.14709566 -0.13440399 -0.83708361
C -0.98175189 -0.86570097 0.19338841
O 1.95227345 0.84249254 0.67411595
C 0.89603903 0.38570218 0.31233332
C 0.01700732 0.74408775 -0.88576339
N 0.17863724 -0.63149673 0.92444215
H -1.67718822 -1.63331887 0.51561488
H 0.56945917 0.60587435 -1.82012273
H -0.28523944 1.79507096 -0.83538314
H 0.47785909 -1.10830710 1.75845816
