13

C 0.5849494 -1.5848153 -1.1654692
N 0.22892873 -0.6434347 -0.12633684
C -0.05469688 0.6601252 -0.37882382
O -0.07835691 1.1679728 -1.4861956
C -0.33570272 1.4785999 0.87856925
O -0.56494933 0.69491833 2.0374584
H -0.10970526 -2.4299574 -1.1845473
H 0.53306 -1.0558441 -2.1179361
H 1.6023211 -1.9639634 -1.0228758
H 0.2659922 -0.914763 0.84543353
H -1.164191 2.1618297 0.6531796
H 0.550328 2.0887396 1.0832684
H -1.4579774 0.34059227 1.9842756
