9

O -0.90832405 -2.62635483 -0.06701163
C 0.06991735 0.19462389 -0.40235127
C 0.10745311 -2.05244704 0.20343526
O 0.01016534 2.44480413 0.42241495
C -0.37933022 1.43195784 -0.39849403
N 0.59683124 -0.91818913 -0.48859362
H -1.17293162 1.70317912 -1.08403034
H 0.82852331 -2.39568864 0.96650170
H 0.84769585 2.21811475 0.84812903
