11

C -0.53452903 -1.0792162 -1.4112114
C -0.018391931 -0.24961053 -0.28674766
N 1.1579132 -0.26131693 0.24850355
C 1.0939105 0.6933838 1.2542863
C -0.13951601 1.2364048 1.2669402
O -0.86912274 0.6404186 0.27881807
H -1.4266553 -1.6372247 -1.1077218
H 0.24023217 -1.7849019 -1.7136539
H -0.8051195 -0.45939434 -2.2723603
H 1.9405361 0.9110936 1.8888025
H -0.63925767 1.9903638 1.8543441
