11

C -1.65747136 -0.67429832 -1.15368158
C 0.12918801 0.04089053 0.11883002
N -0.91665236 -0.76101153 0.07016194
C 1.12517502 0.22156946 1.20410735
C -0.90136842 0.27005751 -1.77430696
O 0.20001228 0.71198579 -0.99337641
H -1.17131978 -1.38098615 0.82599998
H 2.12572019 -0.04233913 0.84996157
H -0.95193511 0.75811664 -2.73489628
H 1.14519185 1.26589776 1.52784936
H 0.87345946 -0.40988257 2.05935067
