11

N -1.01567 -0.27440983 -1.9024682
C 1.0243578 -0.11428002 1.3906876
C -0.7027633 0.78831786 -0.013037791
C -0.2673777 -0.33365217 -0.8427284
C -0.016022801 0.8772231 1.1401243
N 1.3817724 -1.0922686 0.6354179
O 0.6710602 -1.2170713 -0.591568
H -0.18353789 1.6389955 1.8973949
H 1.6093568 -0.08215459 2.3079228
H -1.5254117 0.7241899 -1.3323748
H -0.9757639 -0.91488975 -2.6893704
