11

N 0.9676031 0.4617066 -2.1410637
C 0.57863 0.24223113 -0.9579336
C -0.79859626 -0.11678315 -0.64479345
C -1.1496599 -0.33944452 0.62762266
C -0.12372291 -0.20875718 1.6408995
N 1.0953654 0.10390566 1.4158634
O 1.4616467 0.3338346 0.10225205
H 1.9594043 0.6969719 -2.1625388
H -1.4807354 -0.18576021 -1.4831328
H -2.160493 -0.6109989 0.91439784
H -0.34944227 -0.37690583 2.6884265
