11

N 0.37036267 -1.0727509 -1.8412455
C 0.17623736 -0.42196172 -0.700192
C -0.25325307 0.4826965 1.6995137
C -0.14872842 0.97758865 -0.71380305
C -0.3644093 1.3746338 0.5796095
N 0.07246242 -0.7630308 1.6337385
O 0.33051893 -1.2246624 0.35761452
H 0.59413135 -2.0569117 -1.8647739
H 0.293311 -0.51223356 -2.676312
H -0.6313116 2.405319 0.8088124
H -0.43932125 0.81131357 2.717038
