11

C 0.8367438 -0.9616809 -1.9435265
C 0.010212218 0.79685044 1.9092654
C -0.011391559 0.82088125 0.4041154
O -0.37988526 -0.3811838 0.01869177
C -0.46473816 -0.5614099 -1.4031616
N 1.8505316 -1.2748668 -2.3992286
H -1.2038317 -1.3434099 -1.5900813
H 1.049636 0.9705849 2.2174847
H -0.5518884 1.6697965 2.2635276
H -0.7669237 0.3834576 -1.8568301
H -0.36846483 -0.11901941 2.3797433
