11

C -0.51998293 1.1358815 0.47923496
C -0.12753256 -0.2316325 -0.03138424
C 1.2590503 -0.7119201 0.028110038
O 0.27967995 -1.1805369 0.9397863
C -0.989281 -0.7766083 -1.07891
N -1.6794417 -1.1709244 -1.9179363
H -1.525367 1.1103406 0.90847373
H 0.1841353 1.4507372 1.2543287
H -0.50722283 1.8674978 -0.33343065
H 1.6122847 -1.443465 -0.6961534
H 2.013678 -0.049370125 0.44788092
