10

N 1.412435 0.4463122 0.5638861
C -0.6321129 -0.36250514 0.014743245
N 0.2506911 -0.19822857 1.0836154
N 1.0867147 0.9775366 -0.65301734
N -1.6497203 -1.1250719 0.06357239
C -0.049306314 0.49962994 -1.0200154
H 0.47493318 -1.0497283 1.5826697
H 1.7298844 1.1911227 1.1775842
H -2.1515925 -1.100085 -0.8220122
H -0.47192645 0.72101754 -1.9910264
