10

N 0.46173372 0.89746273 1.22208733
C 0.55081865 0.45253710 -0.88560797
N 0.95316602 1.28622865 0.00697318
N -0.53113015 -0.10078140 0.99202163
N -0.89228016 -1.61578264 -0.76451807
C -0.35189935 -0.55456268 -0.31594483
H 0.07199831 1.70639308 1.69735586
H 0.88151811 0.51721564 -1.91368246
H -0.62685148 -1.76263371 -1.73649672
H -0.51707368 -0.82607687 1.69781225
