10

C -0.84097669 0.54549079 -0.92030350
C 0.16801830 0.17762930 -0.13046825
O 1.42555496 0.69696561 -0.19525330
C 0.08822526 -0.85237381 0.95277406
H -1.82109830 0.09912104 -0.81661268
H -0.91685102 -1.27139357 1.01912575
H -0.71520431 1.30718927 -1.68714731
H 0.80223391 -1.65976438 0.75761159
H 1.45385514 1.36063324 -0.89516491
H 0.35624300 -0.40349753 1.91543848
