10

C 0.08120406 -1.0138144 0.7795444
C -0.20799586 0.39056408 -1.2868403
O 0.23670517 1.3262888 0.8608255
C 0.023443164 0.27534443 0.02097968
H 0.19073078 2.1459045 0.35362896
H -0.37595314 -0.48342997 -1.9021133
H -0.6721796 -1.0132862 1.5748173
H 1.0608838 -1.1262468 1.2563702
H -0.24193075 1.3621827 -1.7755717
H -0.094907366 -1.863507 0.118359335
