9

O 0.755287 0.24371687 -2.0782564
C 0.26518396 0.10906868 -0.8376299
N 0.9875378 -0.31347924 0.17810674
N 0.07747364 -0.28086728 1.1814665
C -1.1064663 0.14792198 0.72016716
N -1.0287946 0.40833813 -0.5691203
H 1.6881344 -0.009542779 -2.0515738
H 0.34472808 -0.55844194 2.1121228
H -1.9830841 0.25328553 1.3447171
