9

O -1.56885363 0.74749842 -0.46794531
C -0.42424311 0.19427421 -0.03873899
N 1.64655412 -0.62804948 -0.03891776
N 1.21023182 -0.67010017 1.17089073
C -0.05784679 -0.17898890 1.23020199
N 0.65197225 -0.09352804 -0.79477253
H 0.81548152 0.05214679 -1.77825536
H -0.62430369 -0.12301708 2.14665080
H -1.64899261 0.69976420 -1.42911366
