9

O -1.9676921 0.42639986 0.07731149
C -0.65695935 0.13498016 0.031894512
N -0.11063647 -0.8954589 0.6557758
N 1.1745241 -0.7852431 0.32856625
N 1.4961641 0.22554328 -0.44913676
C 0.3390302 0.8443379 -0.6632548
H -2.3984146 -0.23472567 0.635021
H 1.8610241 -1.4444137 0.6593606
H 0.26296017 1.7285802 -1.2755381
