10

O -1.340491 -1.6176965 -0.13636948
C -0.51225775 -0.5813309 0.059997953
O 1.0821246 0.5943243 -1.2739395
C -0.29600972 0.6091765 -0.8533782
C 0.7584527 1.0044703 0.06417007
C 0.464878 -0.22597037 0.9148045
H -1.0050209 1.2073454 -1.4139103
H 1.0190388 -0.73311627 1.696527
H -1.2042036 -2.2642555 0.5683842
H 1.0334886 2.007053 0.3737137
