10

O 0.87882095 1.25225430 -0.89814798
C -0.07034837 1.24537359 0.18006848
O 0.03884419 -2.07375394 -0.36123446
C 0.14811551 0.00595688 1.04022487
C -0.04654452 -0.77477752 -0.03881678
C -0.27512813 0.39298556 -0.97818145
H 0.57465830 -0.14370168 2.02564092
H 0.27299534 -2.57702676 0.42944896
H -0.57573978 2.17364255 0.42405688
H -0.94567370 0.49904703 -1.82305939
