10

O 1.5569156 -0.1089478 -1.4738498
C 0.62023544 -0.58471423 0.6058643
O -1.6025833 -0.49416193 -0.30184442
C 0.6248714 0.12693773 -0.6458126
C -0.81330216 -0.07682668 0.77191037
C -0.7641752 0.6469648 -0.54954195
H 1.361877 -0.39489838 1.3754961
H -1.3244082 0.31756976 1.6438936
H -1.2225862 1.5715739 -0.8786483
H 1.5631557 -1.003497 -0.5474674
