10

N 1.2020901 0.045668077 -0.61055106
C -0.025665049 0.007836553 -0.13598366
C 1.0152152 -0.097070545 1.5853425
O 1.9134387 -0.02487971 0.5440395
C -0.31069383 -0.080928914 1.2277728
N -1.1236084 0.06718982 -1.1349502
H -1.9657371 0.022272177 -0.5487091
H -1.1104432 -0.7204127 -1.7876687
H -1.1236086 0.934457 -1.6777755
H 1.5290123 -0.15413183 2.5384831
