10

N -0.5671643 1.1646897 -1.2872459
C -0.1548145 0.24877945 -0.32494962
C 0.685335 -0.8118697 -0.39565095
O 0.69092625 -1.4121579 0.8466161
C -0.14748022 -0.67410964 1.5757922
N -0.68153757 0.32303995 0.9544149
H 0.14491008 1.4164641 -1.9584018
H -0.9742745 1.9854844 -0.8612205
H 1.3028764 -1.2664902 -1.1533837
H -0.2987766 -0.97383 2.6040292
