10

N -0.15861954 0.78852287 -1.38137388
C 0.06106132 0.03727310 -0.11871769
C -0.18733589 -0.81406880 1.68984991
O 1.09002341 -1.09131633 1.25647253
C -0.95407157 -0.06123345 0.83456825
N 1.24701622 -0.51322782 0.03776825
H 0.47115453 1.58812831 -1.48542879
H -1.12681568 1.11708116 -1.28378979
H -0.07189629 0.20070993 -2.21413286
H -0.37051647 -1.25186879 2.66478401
