10

C 0.59654075 1.3858517 -0.5830417
O -0.4054493 0.3875598 -0.38525173
C -0.02971541 -0.6239845 0.43234193
O 1.050148 -0.714551 0.96441966
N -1.063145 -1.5036945 0.5807794
H 0.85538274 1.8672696 0.36462998
H 0.14978638 2.1088002 -1.2668442
H 1.4977912 0.95117074 -1.0226212
H -1.8255866 -1.4657719 -0.073925026
H -0.8257528 -2.3926501 0.9895129
