10

C -0.86608068 -0.00556874 -0.43055466
O -0.78261492 1.12247517 -1.24273826
C 0.18358237 -0.34292686 0.32365254
O 0.27946677 -1.49964018 1.02881825
N 1.29270768 0.46708680 0.51537556
H 1.31201169 1.20865558 -0.16951417
H -1.35949334 1.80211846 -0.86649066
H 2.15563923 -0.05890874 0.55657057
H -1.76122804 -0.61971849 -0.48995332
H -0.45399081 -2.07357296 0.77483415
