11

C -1.1451995 -0.3136175 0.70634884
N -0.060828358 0.65698487 0.6390297
C 1.1038375 0.18486118 -0.08083774
C 0.8339657 -0.16876192 -1.4975806
N 0.55873054 -0.41858706 -2.5919518
H -1.512262 -0.6375132 -0.27921894
H -1.9775423 0.12432734 1.2646192
H -0.8010113 -1.1982964 1.2540466
H -0.38867196 1.519259 0.2191506
H 1.8837758 0.9528314 -0.057697654
H 1.5052058 -0.70148754 0.42409205
