11

O 0.9733094 2.3539274 1.4582067
C 0.95104957 1.1915768 1.2479671
C -0.9594532 -0.46412423 -1.3344109
C 0.06971403 -1.1567674 0.6196555
N -0.77951676 -1.3999352 -0.3253929
C 0.8047445 0.015788933 0.7199388
N -0.44730082 0.70744145 -1.3670585
H -0.7427194 1.2097327 -2.207511
H 1.5065632 0.3308442 1.9696497
H 0.23889871 -1.955181 1.3455712
H -1.6152891 -0.8333042 -2.126615
