11

O 1.1711575 -0.22675058 0.05273505
C -1.227001 -0.45389226 0.03284011
C 0.098610185 -1.0855868 0.1405664
C 0.9326769 1.0983013 -0.119961016
N -1.4330919 0.7962217 -0.13146196
C -0.2963494 1.6049597 -0.21008521
N 0.22868578 -2.3326395 0.30286488
H -0.46129155 2.6655045 -0.35081258
H 1.852654 1.6666042 -0.17444173
H -2.0754437 -1.1316583 0.10224
H 1.209393 -2.6010642 0.3555161
