11

O 0.4631508 -1.0946362 -2.3390975
C 0.80960417 -0.14839557 -1.6626766
C 0.26772967 0.106283545 -0.33465353
C 0.4732519 1.0715262 0.62545
N -0.30920544 0.8385575 1.7151506
C -0.9865016 -0.25577167 1.4240854
N -0.67833275 -0.7361008 0.20384435
H 1.5617318 0.58262515 -2.015729
H 1.1443106 1.9193048 0.5839681
H -1.7103946 -0.7323172 2.0726225
H -1.0353447 -1.5510759 -0.27296457
