10

C -0.38305541 0.26097302 1.43551213
C 0.18175000 0.06872068 0.15948446
C 1.52494314 0.21418772 -0.28878278
C 2.66080679 0.33709292 -0.66940181
N -1.67546401 -0.04920544 1.11854686
N -0.81026909 -0.31410615 -0.70483126
N -1.97405571 -0.39449203 -0.13499505
H -2.45178457 -0.04317118 1.76155015
H 3.67366785 0.44859014 -0.98680068
H -0.74653904 -0.52858957 -1.69028209
