10

C -0.029755855 -0.07670541 1.4780632
C -0.018105606 0.019862318 2.6770658
C -0.038021524 -0.1794011 0.059807416
C -0.54121584 -1.154767 -0.81551504
N 0.42807215 0.56182534 -2.000341
N -0.1854611 -0.6257327 -2.0732796
N 0.5692672 0.75926286 -0.7175243
H 1.1295862 1.5457516 -0.41421175
H -0.013220434 0.093070365 3.7426057
H -1.3011452 -0.9431662 -1.9366702
