10

C -0.93140703 0.3779608 2.3656564
C -0.47362834 0.21011692 1.2660587
C 0.06569484 0.006362856 -0.033028446
C 1.340533 0.11865367 -0.54945487
N 1.3054775 -0.19738716 -1.866709
N 0.08758967 -0.49704978 -2.200364
N -0.6652284 -0.37887284 -1.1105309
H -1.3310889 0.53010947 3.3449636
H 2.256058 0.40212846 -0.053696465
H -1.6540004 -0.5720223 -1.1628951
