11

O 0.18978721 -1.9071155 1.1285306
C 0.029049749 -0.7656241 0.4116275
C -0.8751514 -0.36896348 -0.5395785
C -0.50270253 0.96433496 -0.9078153
C 0.5955451 1.3142095 -0.17573547
N 0.91659355 0.24036385 0.6351597
H -0.50576484 -2.5191731 0.8669232
H -1.70001 -0.9512096 -0.9262202
H -1.0045086 1.583259 -1.6375344
H 1.1802384 2.2205112 -0.14893837
H 1.6769232 0.18940729 1.2935812
