11

C 1.2966536 0.63704234 0.57356745
C 0.10108571 -0.29272705 0.4134018
C -0.7473937 0.04887135 -0.7836594
O -0.53710645 0.94804215 -1.5548756
C -1.9297968 -0.82959455 -0.97817606
N -2.8461685 -1.5172441 -1.1191047
H 1.9459275 0.5992002 -0.30601063
H 1.8816444 0.34389213 1.4488746
H 0.97467357 1.674312 0.70273036
H -0.55237055 -0.27102697 1.2962848
H 0.4128512 -1.3407676 0.30696702
