11

C -0.40014705 1.1828552 -0.27017978
C 0.5216366 -0.9011094 0.009043526
C -0.7505817 -0.7843182 0.7837062
O -1.3495556 0.4532097 0.38533217
C 0.7510873 0.215793 -0.7303527
N -0.05303362 2.3570466 -0.3801618
H -0.53552306 -0.769785 1.8604269
H -1.4655991 -1.5904588 0.5826108
H 1.0897185 1.5326961 -0.4666668
H 1.101807 0.13056488 -1.7592367
H 1.0901908 -1.8264945 -0.01452172
