12

O 0.2102283 -0.09807056 1.7795714
C 0.592005 -0.59661937 0.5539396
C 0.6307902 0.48075244 -0.5842836
O -1.668939 -0.3709336 -0.16581462
C -0.44347337 -0.8593137 -0.4196679
O -0.3062495 1.5805405 -0.4489767
H -1.5118567 0.6602041 -0.2590634
H 0.8815723 1.5579206 -0.03922491
H -0.32598042 -1.5931509 -1.2135847
H 1.4856395 -1.2110562 0.59529203
H 1.1919577 0.36359838 -1.5100689
H -0.73569393 0.08612796 1.7118819
