12

O -0.6662954 -1.4513221 0.8808886
C -0.05994236 -0.22458316 1.2002971
C 0.44462883 0.45129183 -0.073197514
O 1.3289847 -0.42317164 -0.72307867
C -0.7116997 0.77408355 -0.99856263
O -0.7226015 0.3839144 -2.1420367
H -0.028195424 -1.9139616 0.31655654
H 0.785356 -0.34773254 1.891226
H -0.8153938 0.39872977 1.6935173
H 0.937694 1.403889 0.18717663
H 1.0296345 -0.45454305 -1.6480638
H -1.5221698 1.4034055 -0.5847231
