12

O 0.50336164 -1.419269 0.79126793
C -0.8840951 0.4929011 0.10651077
C 0.18989164 -0.07134475 0.997989
O -1.4431943 -0.4442443 -0.7713673
C 0.5647304 0.82253087 -0.16194244
O 1.1002988 0.15454993 -1.2711964
H 0.31385168 0.26872164 2.022832
H -0.8863381 -0.3994216 -1.5680336
H -0.253826 -1.7863272 0.30659968
H -1.5783752 1.2409246 0.47819823
H 0.9410077 1.8310915 -0.010983934
H 1.4326866 -0.6901128 -0.91987383
