11

N 1.5347967 0.022030218 0.7867512
C 1.0010399 -0.30188775 -0.4561676
C -0.42137796 -0.22488731 -0.42126125
N -0.6864333 0.15229097 0.8780328
C 0.5111987 0.28290126 1.5404531
N -1.3823341 -0.17611942 -1.4057164
H -0.058566224 0.64955336 -1.2223856
H 0.55489516 0.5728335 2.5827763
H -1.611405 0.37602857 1.2066228
H -1.0525775 -0.7319864 -2.1983337
H 1.6107637 -0.620757 -1.2907716
