11

N 0.23906431 0.16554275 1.22638055
C -0.93468007 0.73372600 1.07383355
C 0.55500132 -0.35604486 0.00075744
N -1.39034040 0.61653944 -0.19164334
C -0.43874868 -0.09519040 -0.90814337
N 1.73349730 -1.09234972 -0.15930209
H -1.49190428 1.24370445 1.84704033
H -2.26122056 0.96960355 -0.54920623
H 2.21930443 -0.89936681 -1.02414611
H -0.57328035 -0.34623262 -1.94909220
H 2.34330704 -0.93993193 0.63352141
