11

N -2.16171235 -0.63509411 0.66124879
C 1.16200585 0.39724295 0.38164871
C 0.11199204 0.12623119 1.14972507
C -1.00592689 -0.29577488 0.28141641
C 0.79137948 0.16940486 -1.05387264
O -0.57137576 -0.25730796 -1.01475509
H 2.14434025 0.73222184 0.69369293
H 0.01893197 0.18092523 2.22579075
H -2.74658312 -0.88568296 -0.13535234
H 0.86202132 1.07982657 -1.65937093
H 1.39492729 -0.61199288 -1.53017174
