11

O -0.27884263 1.6410697 2.1671038
C -0.21489458 0.86898917 1.2339982
C 0.75096846 1.0199819 0.13574772
C 0.78070587 0.13609262 -0.873406
N -0.103517056 -0.9222957 -0.87751967
C -0.991905 -1.0435452 0.15240651
N -1.0872597 -0.24693218 1.1528296
H 1.4333026 1.8605171 0.16689341
H 1.4647073 0.1893721 -1.713627
H -0.09803664 -1.5997204 -1.6209673
H -1.6552285 -1.903529 0.0765409
