11

O 0.4557531 -0.5285904 2.4366672
C 1.3020021 -0.28583214 0.1848685
C -1.4237094 -0.61150086 -0.09471596
C 0.8028915 0.2531217 -0.9251305
N -0.58885854 0.38810885 -0.84845126
C 0.30849475 -0.2469286 1.2776903
N -1.0040394 0.27102694 0.8575791
H 2.3230274 -0.594657 0.35935804
H -0.9993156 1.2904102 -1.0581983
H -2.4800394 -0.5168228 -0.3594925
H 1.3037933 0.58166426 -1.8301744
