11

N 0.29612792 -1.5443773 0.71703506
C 1.1448982 -0.6288502 0.13728508
C 0.8916228 0.09373603 -1.1124958
C -0.09137493 0.69551677 -0.5436962
N -0.99504846 1.5223002 -0.09054902
N -0.915676 -1.202223 0.84460354
H -1.6488738 1.1296697 0.5758833
H -1.4135494 -2.0585058 1.1408517
H 2.166325 -0.65808016 0.51609266
H -0.8650297 2.5246 -0.13209757
H 1.4305782 0.12621352 -2.0529127
