11

N 0.10273849 0.7129167 -1.7197852
C -0.005640279 0.16782573 -0.4377963
C 0.8897599 -0.5038269 0.36949778
C 0.13350071 -0.858384 1.5075321
N -1.1180644 -0.44191697 1.431696
N -1.1807153 0.17949682 0.23440108
H 1.0481933 0.6358973 -2.0717049
H -0.19912754 1.6774805 -1.7743099
H 1.9329065 -0.700407 0.1671285
H 0.46458519 -1.3968108 2.3846045
H -2.0681367 0.5277285 -0.091263406
