9

N 0.37279122 -0.04428452 -0.43827303
C -0.17714342 1.09884466 -0.43621075
N 0.50681008 -2.09202881 0.62172783
C -0.01826916 -0.93858596 0.56752817
O 0.12014216 2.03495412 -1.33586727
H -0.93445631 1.46504086 0.26444698
H 0.79924411 1.66479266 -1.92293736
H -0.78299385 -0.57713550 1.27684136
H 0.11387511 -2.61159726 1.40274417
