9

N 0.9274539 -1.8877041 0.7722623
C -0.45712876 0.96320516 -0.5407294
N 0.13912603 -0.15645911 -0.5377566
C 0.32709774 -0.7721706 0.70719534
O -0.6848427 1.6470224 -1.6608195
H -0.85095805 1.5029051 0.32654575
H -0.06899048 -0.23483087 1.5863743
H 0.97748893 -2.1945124 1.7406119
H -0.30924654 1.1325446 -2.393684
