10

O -0.2353182 0.435108 -2.2321668
C -0.13625957 0.02771705 1.378944
C 1.2656035 -0.3536406 -1.4726883
C 0.037287015 0.1355213 -1.0409551
N -0.6410794 0.39987686 0.069315776
H 0.863547 -0.39790562 1.2429951
H -1.4760417 0.9595932 -0.023063414
H -0.051859472 0.9076302 2.0244644
H 1.1535575 -1.3966206 -1.8035909
H -0.77943695 -0.7172798 1.8567449
