10

O -1.6819233 -0.598489 -1.529823
C -0.80340856 -0.26797986 -0.7783659
C -0.3761526 -0.617422 0.6613314
C 0.7697851 0.39954156 0.4449534
N 0.2413937 0.6099908 -0.8998612
H -1.1103841 -0.3492813 1.4230455
H -0.065326 -1.6553442 0.7917455
H 0.7271727 1.2887541 1.081752
H 1.7781612 -0.022735767 0.46466792
H 0.52068186 1.2129655 -1.6594458
