10

O -0.76996326 1.5115951 -1.7171383
C 1.1238711 0.7725959 -0.5093401
C -0.29595527 0.7595362 -0.8912887
C 0.06244278 -0.8054889 0.7231678
N -0.8973103 -0.2458634 -0.18682833
H 0.016337277 -0.41091508 1.7423431
H -1.7767963 -0.6692934 -0.4410785
H 1.3313572 1.5030104 0.28630063
H 0.099473685 -1.8985709 0.7216994
H 1.1065428 -0.5166058 0.27216268
