11

C 1.6615112 -0.4872502 0.7362492
O 0.67394334 -0.087359555 1.4824927
C -0.6617299 0.02309041 0.88887084
C -0.37451935 0.11828704 -1.4612293
O -0.82685405 -0.5935537 -0.3138241
H -1.3082201 -0.470052 1.6174159
H 2.5077987 -0.46250528 1.4715254
H -0.8785903 -0.33498916 -2.3170094
H -0.8532462 1.1034557 0.8520627
H 0.70789564 0.011049893 -1.5613695
H -0.6479887 1.1798269 -1.3951844
