11

C 0.9306321 -0.0023657153 0.47115457
O -0.19945607 -0.40749 1.0379174
C 0.2892322 1.4013935 -0.8716343
C -1.1554432 -1.0391611 0.18768749
O 1.465402 1.5907745 -0.4302567
H 1.3428948 -0.639064 -0.3055307
H -0.13800889 2.3445115 -1.3287174
H -1.4392326 -0.311238 -0.5785555
H -1.9882152 -1.3287245 0.827363
H -0.70484924 -1.9232895 -0.28096536
H 1.5970436 0.3146533 1.2715377
