10

C -0.67500516 1.23148164 -0.12939238
C -0.61297405 0.52692038 -1.22418580
N 1.35255007 -0.35681118 0.20309009
N 0.60749368 -1.16354331 0.73959540
C -0.05411243 -2.09107862 1.14136626
C 0.67296908 0.73333666 -0.50393366
H -1.24591473 1.80856466 0.58057015
H -1.09412876 0.09399234 -2.08626236
H -0.39192617 -2.18720701 2.16805682
H 1.44104844 1.40434422 -0.88890407
