10

C -0.22534776 0.9752192 -0.36900768
C -0.6283474 -0.040673062 -1.2349718
N -0.45452094 -1.3358449 -0.99042684
N 0.13412882 -1.7133086 0.1386176
C 0.54071236 -0.7889859 1.0035614
C 0.38850775 0.5836012 0.8040892
H -0.39003202 2.0179164 -0.61555314
H -1.1170113 0.18499684 -2.1794424
H 1.0114853 -1.1796222 1.9014971
H 0.74042517 1.2967008 1.541637
