10

C 1.5404375 0.20189536 0.61825037
C -0.59923685 -0.04135342 0.8001445
N 1.542376 -0.43381917 -0.46080738
N 0.7214939 -1.0588617 -1.1348268
C -0.9741317 0.7101587 -0.22851355
C -0.61378247 -0.65541303 -0.5899902
H 1.9453218 1.214977 0.6467938
H -0.7568736 -0.20387644 1.8546556
H -1.3675994 -1.3593225 -0.93992156
H -1.4380049 1.6256154 -0.56578493
