9

N 0.45449634 -1.16559069 -1.50516899
C 0.51790255 -0.31204807 -0.59151669
O -0.07435429 0.94607711 -0.67035033
C -0.98009521 1.41174195 0.19994559
O -1.23444284 0.42223580 1.04663769
C 1.34257560 -0.52624561 0.58761960
N 2.01747190 -0.68600134 1.51098160
H -1.88971657 0.74944781 1.67965372
H -0.15383724 -0.83961670 -2.25780216
