10

O -1.0356591 -1.6753871 -0.25737938
C 0.62437135 1.29716 -0.14000644
C -0.18115945 -0.75769955 0.3350487
C -0.5051959 0.70138514 0.2244259
N 1.2216005 -0.8322673 -0.1511124
N 1.6650434 0.31888807 -0.3495012
H -1.465853 1.141531 0.454079
H -0.108238555 -1.0426016 1.3933893
H -1.0739309 -1.4916891 -1.2054222
H 0.85902154 2.3406804 -0.30352136
