12

N -0.2724577 -0.010873644 -2.0510404
C -0.15857919 -0.03978492 -0.6539071
C -1.031369 -0.3136043 0.3334069
N -0.35378963 -0.100737676 1.5488188
C 0.93315345 0.33393505 1.3315396
O 1.7721406 0.66321987 2.148707
N 1.0519217 0.31319058 -0.053779744
H 0.28852597 -0.726969 -2.4993954
H -1.2350463 -0.12635304 -2.3389096
H -2.0477226 -0.67346436 0.29335868
H -0.7615177 -0.087065294 2.4660544
H 1.8147402 0.76850677 -0.52485335
