12

N -1.3284621 -0.56981087 0.07943668
C 0.5564392 0.35664496 -0.53880185
C -0.70428586 0.09241895 -0.9908727
N 1.6310374 0.957997 -1.19922
C -0.4128096 -0.6460623 1.0589771
O -0.7339232 -1.2329035 2.2220044
N 0.7347315 -0.10835639 0.7519172
H -1.2086235 0.27416283 -1.9269128
H -2.2714827 -0.9169159 0.12264771
H 1.3557262 1.7053204 -1.8196092
H 2.323628 1.2758808 -0.5336502
H 0.058024816 -1.1883758 2.7740839
