11

O -0.5079969 1.6134517 0.6392896
C -0.324246 -0.41918334 -1.1401011
C 0.40549704 0.5931656 -0.23459418
N 0.17764089 -1.4623685 -0.22305645
C 0.5416625 -0.46998534 0.7130531
O 0.6558046 -0.46368492 1.9382932
H -1.4193709 -0.39058006 -1.127028
H -0.025959076 2.449762 0.581495
H 0.03786788 -0.47007617 -2.1678557
H 0.7842897 -2.213358 -0.52186453
H -0.3251899 1.2328569 1.5423689
