11

O 0.07575854 -0.4708648 1.8542647
C 0.72970253 0.18077014 0.3774183
C 0.48333085 -0.7418249 -0.828674
N -0.42239597 0.29797947 -1.333665
C -0.45012364 0.9606554 -0.13416785
O -1.1956854 1.7726713 0.36630705
H -0.5746703 0.23002523 2.0680716
H -0.020778794 -1.6813912 -0.587109
H 1.3663965 -0.922606 -1.4475164
H 1.0062089 0.0004074197 1.8236973
H -0.99774325 0.37417802 -2.1586268
