11

N 0.9889016 0.04395293 2.0388122
C 0.36375025 0.3308058 1.0517019
C -0.39651558 1.1002097 0.16204308
O -1.2635276 0.3976865 -0.6490246
C -0.51824564 -0.79792595 -1.1027179
O 0.78111476 -0.67115444 -0.715218
H 0.7206982 0.63274467 -0.5572468
H -0.7660277 2.075328 0.46459007
H -0.9987392 -1.6722385 -0.64616483
H -0.63398504 -0.8099352 -2.1926134
H 1.722576 -0.6294736 2.1458383
