11

N -0.6293075 -0.713843 -1.9401388
C -0.3244214 -0.278399 -0.79988384
C 0.7057686 -0.87555516 0.13408522
O 0.43976736 -0.24253626 1.3707485
C -0.12889908 0.99086076 1.0473909
O -0.84588045 0.8114952 -0.1713004
H -1.332255 -0.12881418 -2.3855839
H 0.5858559 -1.954276 0.24142966
H 1.7195303 -0.65317166 -0.22716327
H -0.8278372 1.2823288 1.8338069
H 0.6376784 1.7619103 0.8966093
