12

N -1.5243394 -1.0983559 -1.3442843
C -0.62045676 -0.4523413 -0.5535741
N -0.69097424 -0.6974871 0.7667909
C 0.22099943 -0.08977586 1.5146723
C 1.1956185 0.7542156 0.9962465
C 1.1564199 0.9373854 -0.3827899
N 0.26363766 0.3523167 -1.1701133
H -1.6492709 -0.7501932 -2.281016
H -2.3194425 -1.5048335 -0.8777492
H 0.16491742 -0.28389752 2.5863483
H 1.9301733 1.2426066 1.6232022
H 1.8727175 1.59036 -0.8777331
