12

N 1.3573413 -0.4783715 1.6901097
C 0.10721429 1.3389717 -1.0974627
N -0.71801794 -0.70875335 0.89797634
C -1.2406102 -0.68811953 -0.25647038
C -0.8202003 0.24608873 -1.3317057
C 0.14061964 0.04772305 1.5387417
N 0.6700474 0.3627856 -1.6356256
H 1.6488185 -1.3561804 1.2663003
H -2.080098 -1.3511591 -0.45553026
H -1.4880066 0.2840621 -2.1904442
H 0.38126114 2.2964385 -0.66953874
H 2.0416307 0.0065140934 2.2436495
