12

N -0.7495019 0.24026215 -1.146389
C -0.016644431 -1.5644969 0.22308044
N 1.5043402 -0.24369994 0.6841898
C 0.6383706 -0.8697401 1.3387352
C -0.7471312 -1.0428936 -0.8448271
C 0.14905629 1.0870023 -0.8379828
N -0.048026502 2.2903233 -0.31719992
H -1.2832648 -1.7198958 -1.5051258
H 0.7176884 2.9385855 -0.26022035
H -0.93194723 2.5692515 0.09518083
H 0.5560564 -1.0560868 2.4179847
H 0.21100402 -2.6286118 0.15257394
