10

N 0.8266719 0.25236621 1.8325446
C 0.29435217 0.210694 0.6872567
O -0.53522295 -0.5852676 -1.323132
C -0.6645957 0.7379088 -1.1525911
C 0.1100759 -1.0597087 -0.12787628
N -0.23822494 1.2824527 -0.07727383
H 1.0578208 -1.5281376 -0.40171298
H 0.83300513 1.2132252 2.1738923
H -0.5425067 -1.7842909 0.36405763
H -1.1413758 1.260758 -1.975165
