10

N -1.3175095 -0.6397828 -1.1591679
C -1.2075144 -0.74956065 0.0931506
O -0.17952633 -0.21921344 0.7748362
C 0.7651852 0.47434413 -0.03065393
C 1.81968 0.9820413 0.8506604
N 2.675809 1.4046286 1.502823
H -2.1602428 -1.1067452 -1.4858413
H -1.8771511 -1.2563746 0.792058
H 0.2856705 1.3068461 -0.55591875
H 1.1955998 -0.1961832 -0.7819458
