9

O 1.9198707 -1.2321788 0.20550188
C 0.9006864 -0.47712478 0.28540468
N 0.14885294 -0.5551965 -0.7929187
C -0.912035 0.32207382 -0.5716539
C -0.72572434 0.8739372 0.6462287
O 0.44971403 0.3577066 1.209109
H -1.2638335 1.5883869 1.2451707
H -1.7096738 0.487312 -1.2795085
H 1.1921425 -1.3649166 -0.947334
