9

O -0.93105835 -1.1331177 -1.970165
C -0.4089505 -0.6209793 -1.0184551
N -0.89795655 0.3193125 -0.14341573
C 0.06404541 0.627798 0.8210528
C 1.1303623 -0.12236087 0.52819115
O 0.86908954 -0.88984525 -0.5826721
H -1.8232127 0.7031611 -0.22589003
H -0.10504452 1.3416231 1.610369
H 2.1027253 -0.22559167 0.9809851
