9

O 0.49599084 -0.89943415 0.5951118
C -0.069682054 0.11809826 1.3430991
N -0.33264637 0.60444903 -0.8273627
C -0.5678494 1.022638 0.48339912
C 0.2865008 -0.5148029 -0.6634354
O 0.75006646 -1.3470806 -1.5921667
H 0.5306971 -0.94834185 -2.4473145
H -0.013252588 0.014246074 2.413873
H -1.0798248 1.950228 0.6947968
