11

N 1.6185327 -1.5995023 0.64250594
C 0.7595667 -0.7346086 0.30625707
C 0.85711163 0.6702218 0.73617476
N 0.019829739 1.5882864 0.42822868
C -1.0564232 1.2053789 -0.37587446
C -1.2046616 -0.051042728 -0.80142987
O -0.32740772 -1.0408891 -0.48488173
H 1.3971711 -2.5160446 0.25569895
H 1.7154002 0.9141821 1.3587519
H -1.7668778 1.9774762 -0.6393376
H -2.0122418 -0.41345814 -1.4260936
