11

N -0.37287968 1.3159422 0.6456632
C -0.22351885 1.6179512 -0.74860364
C -0.2131274 0.16590604 1.1953946
N 0.31007242 -2.1250007 0.86284196
C 0.14866243 -0.97660714 0.35609493
C 0.115869276 0.5486905 -1.4974614
O 0.2974036 -0.71816874 -0.9833492
H 0.55618215 -2.8050902 0.14140911
H -0.56116015 2.4186647 0.33255216
H 0.28141892 0.5417173 -2.56741
H -0.3389227 0.015994668 2.2628682
