11

O -0.3427178 0.97210836 1.031945
C 0.7083132 0.62789875 -1.097176
C -0.009761574 -0.022499494 0.04621276
C -1.4951546 0.11785753 0.06164943
O 0.5006844 -1.5602015 1.7738132
C 0.6072703 -1.2808061 0.610061
O 1.4525266 0.029300518 -1.8331321
H 1.1444645 -1.9094726 -0.12203988
H -1.2255785 0.45124567 1.4297227
H 0.46613064 1.7009935 -1.2244995
H -1.8061771 0.87357557 -0.67655635
