9

O -0.19730304 -1.73312 0.86459136
C 0.1925834 1.8297471 -0.2638533
C 1.0475409 -0.119406864 -0.4840365
C -0.11435455 -0.87794787 -0.19533293
C 1.2966795 1.1152145 -0.6210107
N -0.9426771 1.8640971 0.09272856
H 0.28644162 -1.3668878 1.6165849
H -0.6570193 -1.2821263 -1.0514811
H -0.91189146 0.57043016 0.041809693
