11

O -0.90728972 2.11340289 -0.57893701
C -0.42213739 1.03942140 -0.30126139
C 0.13461319 -0.02443373 -1.25551574
C 0.37242808 -1.28998062 -0.52576459
C 0.19921266 -0.87999233 0.90049332
N -0.23399072 0.50669280 0.94396411
H 1.16929183 0.27642049 -1.51773401
H -0.38756280 -0.10686692 -2.21394556
H 1.15441687 -1.05085599 1.42239086
H -0.52094075 -1.57498742 1.36060918
H -0.55804128 0.99117993 1.76570110
