11

O -0.808404 2.1625705 -0.7000381
C -0.4192971 1.0855975 -0.3099788
C 0.34788516 0.0028342237 -1.0754604
C 0.54255384 -1.0881832 -0.05725019
C -0.01795268 -0.6968503 1.0909773
N -0.5888503 0.57955843 0.96314335
H 1.2850769 0.42042732 -1.4573439
H -0.23798025 -0.31074888 -1.9477035
H 1.0491462 -2.0247955 -0.2348855
H -0.07865189 -1.212207 2.0398114
H -1.0735259 1.0817974 1.6887286
