11

O 0.6987993 2.2242336 0.43506172
C -0.8681159 -0.8075082 -0.82066226
C -0.40697277 0.58092237 -1.0449593
C -0.15210462 -1.1888937 0.43400046
C 0.35219812 1.0911711 0.18616463
N 0.5647583 -0.030013032 0.93952364
H -1.1441507 1.2772541 -1.4569563
H 0.5092937 -2.0394483 0.20357555
H 0.33646986 0.4379147 -1.8553132
H -0.9031915 -1.5773642 1.1399076
H 1.0130163 0.03173146 1.8396573
