10

N 1.1514063 0.1798014 0.60437524
C 0.20834482 0.66188043 -0.34843138
C 0.6298378 -0.8988161 1.0545442
O -0.5614604 -1.3111216 0.59257656
C -0.9530807 -0.3190293 -0.37406528
N 0.27817622 1.7000945 -1.0608964
H -1.0771785 -0.7993427 -1.3470192
H 1.1460543 2.198124 -0.87218803
H 1.0719105 -1.5455617 1.8071628
H -1.8940105 0.13397121 -0.05605881
