10

N 0.99471756 -0.66219690 0.54347644
C -0.01601139 -0.75130890 1.32359665
C -0.91830855 0.48236385 -0.27221666
O -1.17253438 -0.15468033 0.99330851
C 0.53328513 0.12552126 -0.55022636
N 1.16983689 0.48540319 -1.57767861
H -1.60259941 0.07519378 -1.01967844
H -0.03593456 -1.28461522 2.26981562
H -1.07475086 1.55748989 -0.16583874
H 2.12229921 0.12682937 -1.54455876
