12

N -2.6517687 1.1073792 -0.50104666
C -0.646717 -0.10348159 0.65855193
C -1.7750056 0.5771362 0.03567194
C 0.16603984 -1.0697253 -0.33646217
N 0.51823866 0.78122723 0.84506756
C 1.33662 0.055747274 -0.109691866
N 1.4019324 -1.3082712 0.18369208
H -0.9530948 -0.65087116 1.5544952
H 0.31978703 1.7408843 0.58780473
H -0.31375518 -1.705739 -1.0841454
H 2.155518 0.5128618 -0.6667301
H 0.44220516 0.062851824 -1.1672075
