12

N -0.74579805 -1.9919131 1.9939086
C -0.31836152 -1.520887 1.0291502
C 0.24169381 -0.8802074 -0.15507045
C -0.24501526 1.1239495 -0.7090417
N -0.7800582 -0.20522603 -0.9767953
C 1.0012113 0.49536356 0.1606249
N 1.1055305 1.2193729 -0.9982041
H -0.85725147 2.0271711 -0.7206148
H 0.8844973 -1.5706997 -0.7111218
H -0.21237715 1.0201656 0.67993677
H -1.7175375 -0.36148784 -0.62746435
H 1.6434664 0.64439845 1.0346917
