12

N -0.31953140 -0.97372424 1.33703272
C -0.83706773 -1.30863076 0.22625627
C -0.19596017 1.67860355 -0.65064582
C 0.71398513 0.01409773 1.02509084
N -0.76713078 2.66943436 -0.80701256
C 0.50622490 0.39216740 -0.47383147
N -0.31244702 -0.73144755 -0.93302776
H 0.63310383 0.87725467 1.68950499
H 1.45255174 0.43478619 -1.01894630
H 1.70120385 -0.43699617 1.17134639
H -1.62205324 -2.05434873 0.13164352
H -0.95287929 -0.56119610 -1.69741092
