12

N 0.9621439 1.5571386 0.5016038
C -0.9617629 -1.020792 0.5444872
O 2.2456222 0.21294516 -0.4965159
N -1.4308869 0.06054342 -0.29962525
C -0.08725532 -0.47220007 -0.52811736
C 1.0253804 0.4396388 -0.17575021
H 0.10949437 -1.0984616 -1.3953291
H -1.3496178 -2.0248458 0.39710876
H -2.0701869 -0.26770273 -1.0156466
H -0.7638443 -0.7401451 1.5767518
H 2.238049 1.36065 0.15229967
H 0.08286411 1.9932313 0.73873305
