11

N -1.2421205 0.4486454 0.888426
C 0.21473722 0.88410586 -0.6562328
N 1.3351451 -1.3486943 -0.45277894
N -0.51924103 -0.7069233 0.81978035
C -0.8974442 1.4820625 -0.10156951
C 0.36536378 -0.43565926 -0.123262964
H -2.168732 0.38558024 1.2921308
H 0.8686619 1.338591 -1.3885341
H 1.1370611 -2.2964084 -0.17014144
H 1.72927 -1.259656 -1.374826
H -0.8227013 1.5083566 1.2670084
