11

N 1.4754562 0.36876455 1.3598642
C 0.43790108 0.20100716 0.43979472
N -0.27740207 1.2331369 0.022623984
N -1.2148594 0.68587893 -0.7802993
C -1.1003141 -0.65208536 -0.8913721
C -0.030108698 -1.0208882 -0.10634438
H 2.2854824 -0.19984078 1.156065
H 1.736569 1.3419169 1.4467275
H -1.8901889 1.2897595 -1.2158483
H -1.7774215 -1.2338504 -1.500498
H 0.35488573 -2.0137992 0.06928695
