11

N -1.0214964 2.1275277 1.7182189
C -0.884849 -0.06937476 -1.0105981
C -0.77219135 1.1412297 1.1705995
C 1.0258864 -0.30608776 0.093326956
C -0.4537489 -0.10691582 0.46300206
O 0.8893531 -0.5143951 -1.3335941
H 0.3254033 0.32917187 -1.6705607
H -0.83191097 -0.9514475 1.0521414
H -1.4036145 -0.9887887 -1.3081524
H 1.6637218 0.5523552 0.31056437
H 1.4634466 -1.2132751 0.5150522
