11

N 0.73987323 1.7356898 2.340062
C 0.25191337 1.3206775 1.3801621
C -0.34620467 0.78164685 0.14495349
C 0.57865816 -0.1173417 -0.70064944
C -0.40115657 -1.2313077 -0.3116433
O -1.242611 -0.30057 0.40045875
H -0.83593863 1.6022642 -0.3903828
H 0.59167427 0.1434735 -1.7600536
H 1.5974594 -0.22295022 -0.32755643
H -0.9365656 -1.7122356 -1.1340196
H 0.0028981785 -1.9993466 0.3586685
