11

N -2.4556353 -1.3637849 0.54124564
C -0.50978756 0.38865885 0.3597435
C 0.6576726 0.056826256 1.3352796
C -1.6100856 -0.5820563 0.46423796
C 0.32816812 0.22643685 -0.89882183
O 1.4388264 -0.5488566 -0.38081387
H -0.13977368 -0.26058984 -1.75812
H -0.9148498 1.3989613 0.4699031
H 0.7653415 1.1773742 -1.2066374
H 1.2812402 0.9742203 1.3269228
H 1.1588827 -1.4671898 -0.25293943
