11

N -0.8778352 -0.89104724 2.6814477
C -0.31072375 -0.78386116 1.6825819
C 0.25381902 0.8138663 -0.06793647
C 0.44645995 -0.6054324 0.42197084
C -0.5454552 1.135881 -1.074369
O 0.0004025805 -1.5895492 -0.47700483
H -0.6540111 2.1681259 -1.3923938
H 0.47445464 -1.4428742 -1.3067204
H 0.8252491 1.5710337 0.4660338
H 1.5069656 -0.7592803 0.6730137
H -1.1193258 0.38313776 -1.6066232
