12

O 1.2300864 0.4512836 -1.2581028
C -0.16084757 0.6213816 -1.0907234
C 0.8658632 -0.7601517 1.8417133
C -0.734036 -0.34676814 -0.06096723
N -0.11154671 -0.11325387 1.2490659
H -1.8203535 -0.2256908 0.023801072
H -0.46607947 0.7118358 1.722623
H -0.6203297 0.43438905 -2.0663738
H -0.50746995 -1.3768874 -0.34904954
H 1.6479639 0.5767226 -0.3960315
H -0.41172758 1.6530584 -0.79376245
H 1.0884773 -1.6259192 1.1778073
