12

O 0.06766692 1.1581148 1.3691424
C -0.001735835 -0.23455116 1.2143949
C -0.6454692 0.57043386 -1.5536894
C -0.058532886 -0.6409942 -0.2592201
N 0.68869096 0.29278886 -1.1087073
H -1.0387042 1.2670727 -0.77705324
H 0.23258267 -1.6752795 -0.46556425
H -1.1365687 -0.6538379 -0.71332157
H 0.73213935 1.4516535 0.72527367
H -0.89218944 -0.5815401 1.7454875
H 1.1766796 -0.2228156 -1.8363452
H 0.8754404 -0.73104495 1.6596028
