11

O 1.4065627 -1.5417815 -1.1041871
C -0.31021246 1.4531113 -0.5295104
C 0.64073724 -0.81868607 -0.5393071
N -0.9080375 0.15432239 0.46379295
C 0.31615004 -0.5458081 0.94576174
C -0.52634627 0.057177726 -0.9666682
H -1.2518302 -0.22146739 -1.7269868
H 0.71485746 1.6007643 -0.15779713
H 0.99285686 0.079809055 1.5321308
H 0.07555995 -1.4656718 1.48681
H -1.1502979 1.24823 0.5959608
