11

N -0.5355273 0.29746234 1.4733502
C -0.51505667 -0.41407758 -1.6374184
O -0.4342844 -1.2184744 -0.465751
C -0.053734146 -0.053463425 0.19715655
C 0.9262597 0.123643465 1.2677525
O -0.16073209 0.7737648 -0.931213
H -1.5250541 -0.36846578 -2.0500038
H 1.5551355 1.0106237 1.2157426
H 1.3475066 -0.7281513 1.7940361
H -0.83147126 1.2663842 1.5289319
H 0.22695811 -0.689246 -2.3925838
