10

N -0.32096502 -1.0034003 -1.5103931
C -0.07670809 -0.4409639 -0.2685124
N -0.03333543 -1.1724619 0.81610024
O 0.31613582 -0.30524033 1.8415575
C 0.4528056 0.9217159 1.3359333
C 0.22370003 0.9306619 0.002686045
H -0.884259 -0.42866725 -2.1198194
H -0.67189586 -1.9493617 -1.4500935
H 0.7228314 1.6927315 2.0429463
H 0.27169058 1.7549859 -0.6904051
