10

N 0.31577548 -1.70452407 -0.41407505
C -0.02235523 -0.48174942 -0.23229829
N -0.76984705 -1.09749924 -1.31400646
O 1.65767111 0.24056832 1.91637239
C 0.88606045 1.03920453 1.41898928
C -0.00889202 0.75955413 0.32113894
H -0.50250091 -0.93448018 -2.27839192
H -1.71632331 -1.42201235 -1.15195941
H -0.67259964 1.51910021 -0.07219074
H 0.83301115 2.08183788 1.80642114
