10

N 0.49187016 -1.720274 0.56789356
C 0.29319665 0.74714375 -0.18958828
N -0.998153 -1.4399905 0.32663825
O -1.8539528 1.6001605 -0.69323534
C -0.15392637 -0.49612734 0.12926362
C -0.6511675 1.7590601 -0.6002235
H -0.19732694 2.747849 -0.8375571
H 0.7675635 -1.8345388 1.5369267
H 0.9482338 -2.3202841 -0.109679624
H 1.3536623 0.95700127 -0.13043834
