11

O 1.3675148 1.1980622 -0.42275637
C 0.6965475 0.21440257 0.30993038
C -0.7938351 0.52815515 0.5847732
N -1.1121919 -0.7137781 -0.124292985
C 0.1663453 -0.9734233 -0.5248219
O 0.6685499 -1.7738664 -1.2755393
H 1.9762683 0.74755245 -1.0228939
H 1.248758 -0.0948272 1.2075001
H -1.0980821 0.53278714 1.6329336
H -1.1280863 1.4340398 0.07370001
H -1.9917885 -1.0991048 -0.43853283
