9

O -2.3873925 -1.231435 -0.16175601
C 1.909757 0.09451269 0.097544156
C -1.6922113 -0.32349792 -0.5312109
N 1.7199501 0.7604583 1.1264963
C -0.49747595 0.12748362 0.30192798
N 0.63932556 0.23445514 -0.45185247
O -0.6140122 0.3994873 1.4797852
H -1.8624141 0.24972823 -1.4610443
H 2.7844732 -0.31119245 -0.39989004
