11

N 0.73067936 0.70405500 -0.53283942
C 0.85547444 -0.51069180 -1.29391781
C -0.23959060 -1.22091162 -1.06976287
N -0.09100514 0.66668290 1.90891965
C -0.14569705 0.38314972 0.57361972
N -0.77081500 1.00119975 -0.49918567
N -1.06508653 -0.45186633 -0.17155139
H -0.60747979 -2.17210216 -1.43525438
H 1.72935299 -0.65291280 -1.91764504
H 0.60381263 1.36993252 2.13397068
H -0.99964553 0.88346468 2.30364660
