11

N 0.98776 -0.84992677 -1.526909
C 0.25041234 -0.2228965 -0.55821604
C 0.5883263 -0.2758635 0.8122123
N -0.119109206 0.38362134 1.7035974
C -1.1503134 1.087397 1.2103155
N -1.5077173 1.1586722 -0.06285395
N -0.80010396 0.48613784 -0.96228725
H 1.5284184 -1.6576339 -1.2666591
H 0.5413416 -0.9037978 -2.4304903
H 1.4362309 -0.85783076 1.1676925
H -1.7552459 1.6521207 1.913598
