10

O -1.89961997 -0.70911563 -0.26882663
C -0.64808285 -0.22985197 -0.12482092
N -0.05362192 0.34504018 -1.18998196
C 0.24581020 -0.18013487 0.91992938
C 1.37415897 0.46277830 0.35446634
N 1.19405506 0.77845517 -0.91334963
H -2.18826398 -1.08924507 0.56988574
H -0.44413796 0.46512249 -2.11121063
H 2.31117928 0.70430292 0.83735268
H 0.10852341 -0.54735132 1.92655588
