10

O -1.7667352 -1.105316 1.2138946
C -0.87802833 -0.5469721 0.6018803
N -0.86680543 -0.1360834 -0.72115797
C 0.34606752 0.46430692 -1.0520476
C 1.113759 0.44645137 0.050991308
N 0.37291342 -0.16695905 1.0591794
H -1.6509422 -0.28150973 -1.331968
H 0.5471401 0.8487193 -2.0391064
H 2.1132753 0.81406826 0.2141837
H 0.66935605 -0.33670536 2.0041509
