10

O 0.5490038 -0.7442308 -1.261344
C -0.9913998 -0.4337335 0.36481217
C -0.68676203 -0.084690504 -1.1128248
C 0.9444029 0.35940796 -0.480867
O 0.7641426 0.32961634 1.9844857
C 0.362948 0.06602177 0.88679564
H -1.8345212 0.08590483 0.82210493
H 1.9099543 0.78429765 -0.74818367
H 0.104902595 1.1532145 -0.8928221
H -1.1226712 -1.5158085 0.43784273
