10

O 1.32326887 -0.79631154 0.20036408
C 0.68323892 -0.67130217 1.33794379
C 0.70266540 -0.19618135 -0.97004032
C -0.57183608 0.42674727 -0.43679989
O -1.38513174 1.04254987 -1.07351766
C -0.57804092 0.10548789 1.04902216
H 0.51571406 -0.98084782 -1.70827169
H 1.38897285 0.54170565 -1.39278730
H -1.45763003 -0.48550647 1.33217979
H -0.62122150 1.01365859 1.66190677
