11

C -0.94864298 -0.79456336 -1.15060307
C -0.53748783 0.24125605 -0.19292302
C -0.41050258 1.39496838 0.35479400
N 0.09365897 0.24239742 1.15263133
C 1.48026994 -0.02525145 1.13663218
O 2.01417025 -0.76417910 0.34897414
H -1.58031516 -1.53223329 -0.64396092
H -0.05858290 -1.30274196 -1.53108901
H -1.50433113 -0.35226170 -1.97959591
H -0.56268126 2.44428649 0.52480615
H 2.01444498 0.44832239 1.98033406
