9

O 0.25942078 -1.2891043 -1.5825446
C 0.07627781 -0.5491912 -0.475107
N -0.2803091 -0.15023272 1.6156849
N -0.15605918 0.9993046 0.9665985
N -0.1383833 -1.1017269 0.73674136
C 0.07086025 0.82032603 -0.3611632
H 0.20182987 1.6258174 -1.0632169
H -0.23535822 1.8628849 1.4795271
H 0.2017211 -2.218078 -1.31652
