9

O -1.1188726 0.36504745 -1.0493469
C 0.077051036 -0.091173545 -0.51349926
C 0.4875392 0.7432475 0.70274067
O -0.23058523 1.6278687 1.0979604
C -0.0014539346 -1.5042355 -0.064625405
N -0.050822478 -2.5934002 0.31497303
H -1.4857756 0.9984198 -0.40835738
H 0.87785417 -0.031378414 -1.2638373
H 1.4450654 0.48560444 1.1839924
