11

C -1.6012655 0.96410966 0.52101946
N 1.4925427 -0.9603955 0.45836592
C 1.9952521 -0.9560866 -1.8983878
N -0.43843135 0.28918633 -0.016606996
C 0.32983857 -0.2782508 0.8126121
N 1.7086339 -0.97028744 -0.7834143
H -2.5031304 0.5495631 0.05916565
H 2.089155 -1.247129 -2.9213312
H -1.5567151 2.0264318 0.2575026
H -1.6907945 0.876651 1.6145724
H 0.17491491 -0.29379228 1.8965021
