12

N -2.130903 0.56048703 -0.07830715
C -0.78517103 0.19762088 -0.041286074
N 0.15231262 0.8202731 0.6357527
C 1.3082895 0.16221339 0.30541572
O 2.4942892 0.5430631 0.8285236
C 1.085404 -0.8676886 -0.5564709
N -0.29939473 -0.8345241 -0.76577115
H -2.2953403 1.3118881 0.5802421
H -2.755609 -0.21067011 0.11816675
H 2.3042068 1.280445 1.4256833
H 1.7328588 -1.6107011 -0.99077344
H -0.81094337 -1.3524063 -1.4611753
