9

O 0.51818955 -1.2286085 1.6703205
C -0.16999073 0.2515851 -0.0923668
C 0.17203526 0.8079716 -1.0969067
C -0.5440499 -0.48642468 1.1231651
C 0.8891902 1.9722104 -3.197185
N 0.54953974 1.4252845 -2.2084868
H 0.8472158 -1.838925 1.0000851
H -1.4149389 -1.1206633 0.8980319
H -0.8471909 0.21756978 1.9033427
