10

O -0.88256675 1.9163996 0.5520808
C 0.5631712 -1.1705338 0.49323872
C -0.2965874 0.73290956 0.37057942
C 0.1809443 -0.15593706 1.3386785
N -0.14564694 0.34324735 -0.9226342
N 0.26597807 -0.980353 -0.8619654
H -0.80022323 0.6024034 -1.6500802
H 0.9667421 -1.2088442 -1.5628107
H 1.0515689 -2.1129122 0.7301674
H -0.9033803 2.0336206 1.5127455
