10

O 0.02160614 0.3247297 2.021872
C -0.025817646 0.119008385 0.6880004
C 0.88975835 -0.28692913 -0.25467595
C 0.14528981 -0.27990654 -1.4584231
N -1.1071922 0.09359709 -1.2791773
N -1.1923229 0.33487263 0.048432983
H 0.9151381 0.13618678 2.3331203
H 1.9269619 -0.5462106 -0.09971868
H 0.487659 -0.5372161 -2.451588
H -2.0610807 0.6418679 0.45215765
