10

O -1.7519323 -1.193509 -0.43531856
C -0.6151969 -0.48905897 -0.29541147
C 0.21693867 0.08019374 -1.244428
C 1.1699001 0.63517034 -0.35992366
N -0.20381318 -0.2749609 0.9964586
N 0.9289702 0.39899206 1.0659423
H 2.1678052 1.0114079 -0.57069314
H -0.7203112 -0.4629157 1.8449054
H 0.71144134 1.5291407 0.38813588
H -1.9038024 -1.2344604 -1.3896673
