9

N -0.25052310 -1.09036485 0.37478667
C 0.69746632 0.75307237 0.04033021
C 0.94833764 -0.51828117 -0.27223784
C -0.61308030 0.30103761 0.64675325
N -1.42308826 -0.46217842 -0.26717509
H -1.19040058 -0.20868926 -1.22879109
H 1.19009666 1.70741079 -0.08076339
H 1.69904828 -1.09862280 -0.79681115
H -1.05785668 0.61661573 1.58390835
