10

N -0.56723785 1.1650013 -1.2881973
C -0.15525383 0.24928103 -0.32497856
C 0.6888632 -0.8111485 -0.39398915
O 0.6899494 -1.413466 0.8464807
C -0.15011778 -0.67543143 1.5731716
N -0.68439794 0.3216564 0.95249885
H 0.14697637 1.4200337 -1.9551877
H -0.9742667 1.9853716 -0.8610279
H 1.3071331 -1.263282 -1.1507207
H -0.301648 -0.9780162 2.6019502
