11

N 1.241819 -1.5411291 0.15523806
C -1.601057 1.9226555 1.0706549
C -0.40399835 -0.433506 -1.3517377
N -0.21958391 -0.05064584 1.1579918
C 0.2966877 -0.5247913 -0.10590781
N -0.8463294 1.0129595 1.08557
N 0.47971603 0.4736598 -1.2077688
H 1.8876845 -1.2727487 0.88456345
H -1.1204964 -0.7463656 -2.1032338
H 1.7416478 -1.828684 -0.6775366
H -1.4560897 2.988596 1.0921665
