11

N 0.9941387 -0.84516156 -1.527462
C 0.25114423 -0.22480248 -0.55517477
C 0.5887685 -0.27700043 0.81485856
N -0.11937512 0.3833407 1.7035316
C -1.1516445 1.0877868 1.2072502
N -1.5096834 1.1585099 -0.06458818
N -0.79881716 0.48186618 -0.9618004
H 1.5251555 -1.6607484 -1.2692443
H 0.5384667 -0.90120304 -2.4271166
H 1.4372312 -0.8577651 1.1712043
H -1.7553849 1.6551777 1.9085417
