11

N 1.52405790 -1.27183858 -0.03108378
C -0.26057958 -0.24309161 -1.43225057
C 0.40095718 -0.42790618 -0.17542968
N -0.24411446 -0.30802052 1.11232128
C -1.99529702 1.34015030 1.27635290
N -1.07181489 0.60797751 1.18422925
N 0.41402269 0.77520622 -1.06809505
H 2.10022778 -1.29587965 -0.86383860
H -0.87204590 -0.54298326 -2.27615276
H 2.07625213 -1.02435233 0.77818619
H -2.07166609 2.39073837 1.49576092
