11

C -0.30706704 1.7238055 -0.31396663
C 0.12359928 -1.3718095 1.0015119
N -0.25147957 -0.6744894 -1.3558357
C -0.31336018 0.33435094 -0.7228679
C 0.5394688 -1.4511563 -0.31826743
O -0.66055274 -0.50548005 1.4624637
H -0.40107235 1.7451662 0.77488685
H 0.6158012 2.2049768 -0.65005827
H 0.51483655 -2.1659737 1.6589234
H 1.3080376 -2.063085 -0.76693916
H -1.1682116 2.2236948 -0.76985097
