11

C -1.1217041 -0.69320124 1.3391306
C 0.4204534 -0.06279088 -0.43987215
N 0.1641375 -0.8690762 0.78674126
C 0.27760944 -1.3201369 -0.625323
C 0.72822845 1.3444844 -0.72932446
O -1.7261628 0.34865195 1.3223679
H -0.13661708 1.961914 -0.47262436
H 0.31944138 -2.2567558 -1.1498822
H 1.577725 1.6664993 -0.117576174
H -1.4789557 -1.5940999 1.8705679
H 0.9758447 1.4745111 -1.7842053
