10

C 0.57235727 -0.52762540 -0.70087221
N 1.71462226 -0.22869282 1.14010664
N 0.54447325 0.36256956 1.41233173
C -1.42461593 0.65564037 0.16693761
N -0.21738819 0.21551277 0.30008724
N 1.82349730 -0.75412613 -0.00571262
H 0.72329453 0.08123207 -1.59474057
H 0.08186680 -1.47018853 -0.95692139
H -1.95039936 0.47880742 -0.75982488
H -1.86770817 1.18687042 0.99860849
