10

C -0.54407 -0.0052721812 1.480278
N 0.5746137 0.19480747 -1.8776982
N -0.6655307 1.335113 -0.44399434
C 0.5945531 -0.57009107 -0.647075
N -0.14201087 1.2167898 -1.670727
N -0.24688661 0.24693537 0.24864765
H -0.15193462 -0.8982599 1.9444004
H -1.1780362 0.69663453 2.0052793
H 0.15075387 -1.5575502 -0.79010236
H 1.6085485 -0.65910655 -0.24900855
