10

N -1.0679284 -1.0420271 -0.5143944
C -0.61012316 0.3148086 -0.8870862
O 0.96327317 1.9011977 -0.15690543
C -0.60639405 -1.626303 0.3847129
C 0.51447165 0.78143287 0.07293655
N 0.82415944 -0.11960686 1.0078658
H -0.25067905 0.28014156 -1.9171386
H 0.13474573 -1.6632323 1.219996
H 1.5669281 0.18641654 1.6279539
H -1.4684534 0.9871722 -0.83794075
