10

N -0.4268226 -1.0803893 1.4315242
C -0.17415994 1.3373421 -1.10311
O 1.0445431 -0.9266911 -0.2349643
N -0.6444609 0.6994034 -0.0040932954
C -0.0016874063 -0.39785674 0.35830173
O 0.79180366 1.0060188 -1.8067883
H 1.2308892 -0.3161562 -1.0125287
H 0.09913936 -1.8705328 1.762471
H -1.1787882 -0.6947537 1.975661
H -0.7404563 2.2436154 -1.3664733
