10

N 0.60309136 -0.80945253 1.5048816
C 0.014134405 0.16881266 0.7424344
O -0.4023739 1.2162638 1.1869498
N -0.09824653 -0.1747893 -0.60566634
C -0.637667 0.6746968 -1.5604308
O -0.76525426 0.34613487 -2.7135134
H 0.82826596 -0.5142633 2.4434094
H 1.2499635 -1.4552667 1.0802829
H 0.13236512 -1.1041235 -0.92922676
H -0.92427874 1.6519872 -1.1491208
