10

N 0.64015623 -0.53803571 1.64298437
C 0.20129547 -0.29426441 0.39945154
O 0.28970791 -1.32311696 -0.41287493
N -0.26986536 0.90581844 0.10572317
C -0.70904387 1.08603057 -1.16338373
O -0.71843881 0.25027308 -2.07959610
H 0.66810176 0.22418806 2.29757272
H 1.07190153 -1.42019631 1.85717394
H -0.08154618 -0.98943501 -1.28632264
H -1.09226876 2.09873826 -1.36072834
