12

N 0.26238367 0.41343522 1.060769
C 0.09075056 1.4699202 0.1970792
C -1.1686293 -1.4484836 0.38112497
C 0.19588205 -0.84613734 0.29359737
N 0.17775124 1.1149641 -1.0488936
C 0.55230874 -0.32430032 -1.0848798
N -2.2328205 -1.8982352 0.42455035
H 0.1253337 -0.81591827 -1.953261
H 0.033309974 2.4921799 0.5458582
H 0.9068273 -1.5826645 0.69025373
H 1.1855779 0.9726194 -1.4978826
H -0.12867524 0.45262045 1.9916841
