11

C 0.13248691 0.01741725 -1.08688293
C -0.95812151 -0.10147956 -0.05059934
O -1.37150955 1.02863380 0.63583312
C 0.40919552 -0.61901381 0.25301150
O 1.06169129 0.13625662 1.23927115
H 0.51815519 1.02123753 -1.24774852
H -0.65087975 1.24121472 1.25060976
H 0.10981841 -0.62583397 -1.96007985
H -1.76746558 -0.80434423 -0.23432699
H 1.92630361 0.39842213 0.90022677
H 0.59032516 -1.69251070 0.30068544
