11

C -0.4105797 0.9170202 -1.1528829
C -0.071824156 -0.33332127 -0.3795108
O -0.053090915 -1.4361342 -0.8815225
C 0.27860174 -0.18541738 1.0915465
O 0.65671706 -1.4021302 1.6529182
H 0.5169793 1.3417975 -1.5562232
H -0.8726578 1.6795362 -0.5158283
H -1.0664237 0.6751065 -1.9902259
H -0.60163826 0.23710474 1.6041526
H 1.0824102 0.5628435 1.1823695
H 0.54150593 -2.0564058 0.9452069
