11

C -0.17740391 0.10287055 0.22072661
C 0.8998986 -0.4702555 -0.6380172
O 1.9000269 -1.1329999 0.07938542
C -1.4463389 0.63170516 -0.092736006
O -0.0054800496 0.10565112 1.4978372
H -1.2347213 0.36674717 1.3727776
H -1.5271958 1.6896665 0.16325358
H 0.42350534 -1.1651942 -1.3439316
H 1.8146669 -0.86444634 1.0057125
H -1.9467505 0.37307358 -1.0253934
H 1.2997928 0.3631817 -1.2396146
