9

N -0.46571034 -0.048077386 0.30170703
C 0.46314117 -0.071558625 -0.6994022
N 0.63479924 -1.3306688 -1.1809171
C -0.74124694 1.105701 1.0177048
O -1.5753652 1.1688274 1.8861749
H -0.10216364 1.9470993 0.6969577
H 1.5670142 -0.6222658 -0.54554516
H 1.2375399 -1.2737323 -2.0010984
H -1.0180082 -0.87532496 0.5244183
