11

C -0.93660814 1.3032447 0.29323578
N -0.0891732 0.15929918 0.026758915
C -0.38176042 -1.1507287 0.010353251
N 0.69633 -1.8580186 -0.27385968
C 1.6397507 -0.8968067 -0.42296305
N 1.2174749 0.33905327 -0.2513044
H -0.5752756 1.8306459 1.1792966
H -0.9156072 1.9799469 -0.5639924
H -1.9573151 0.9543298 0.46323457
H -1.3696847 -1.5455645 0.20595175
H 2.6718686 -1.1154013 -0.6667112
