11

C 0.46762407 0.50087357 0.2781997
N -0.6080493 -1.343736 1.7331525
C -0.039536264 -0.11692684 -1.9239699
N 0.48214668 0.44009414 1.622853
C -0.37741926 -0.31464538 2.384986
N 0.05330015 -0.41075495 -0.50918776
H 0.4632826 -0.90800536 -2.4916441
H -1.0947074 -0.12056809 -2.2206926
H 0.90605104 1.4477546 -0.06996643
H 0.3961801 0.8542993 -2.2038267
H -0.64887244 -0.028384836 3.400096
