11

C -0.99058696 0.79117238 -0.09542211
C 0.27295335 -0.03674122 0.00399257
C 1.09452008 -0.21706794 1.23220506
O -0.04956063 -1.37330432 0.52574631
C 0.99341864 -0.11293289 -1.26907009
N 1.56591188 -0.16624217 -2.26895607
H -1.62076534 0.46801886 -0.92977407
H -1.55092939 0.69646817 0.83868879
H -0.72329567 1.84043262 -0.24199281
H 0.56402964 -2.02732758 0.15256183
H 0.44430446 0.13752400 2.05202063
