11

C -0.988519 0.89300203 -0.116734535
C 0.057539508 -0.19600095 -0.17112619
C 0.6752736 -0.7417704 1.0446278
O -0.31361273 -1.4668691 0.3337121
C 0.8375894 -0.24326074 -1.4075058
N 1.4466168 -0.24303588 -2.3884711
H -1.7168294 0.7646317 -0.9219146
H -1.5136646 0.8482031 0.8411262
H -0.52451587 1.8781431 -0.22284533
H 1.679991 -1.1566937 1.0045575
H 0.36013135 -0.33634925 2.004574
