10

O -0.2634827 1.5793281 -0.034419697
C -0.5307223 0.40507984 0.69358975
C 0.8890875 -0.17838737 -0.7987852
C -0.45043817 -0.7369333 -0.29582232
O 1.6340271 -0.5283622 -1.6666371
C 1.043159 1.0503249 0.1641389
H 0.5174604 0.33434972 1.3231328
H -0.3200437 -1.7278861 0.14421454
H -1.2673472 -0.75231737 -1.0244405
H -1.2517 0.55480367 1.4950287
