11

C -1.2506943 0.87854713 -0.26520422
C 1.0948726 -0.9725971 0.97290766
N -0.3703947 1.1847552 0.94068944
C 0.2773765 0.19557883 0.7338215
C -0.6470607 0.5434545 -1.4675329
O 0.53868806 0.15120058 -1.5683178
H 0.61294156 -1.6324098 1.7003623
H -2.2916596 1.0762433 -0.05757486
H 2.057271 -0.6278294 1.3643525
H -1.2740713 0.66957784 -2.3647745
H 1.2527306 -1.4665211 0.011270461
