10

N -0.46350602 -1.19081291 0.66494856
C -0.78745388 0.10406685 0.47961763
O -1.76610880 0.65089305 0.94602682
C 0.16665443 0.92769169 -0.39175305
C 2.19116574 -0.43053057 -1.27756377
N 1.28873364 0.20848374 -0.89125668
H -1.07472169 -1.75394523 1.23590723
H -0.41589695 1.32559909 -1.22695237
H 0.51034514 1.77462635 0.20874218
H 0.35078853 -1.61607173 0.25228326
