10

N 1.0001115 -0.8225473 -0.906549
C -0.49708563 0.6635892 0.41653562
O -0.9115537 1.7753181 0.67459947
C 0.56858706 0.5137379 -0.67426854
C 1.3170215 -1.9398276 -1.0588938
N -0.9035026 -0.4718481 1.0178764
H -0.5470362 -1.3805745 0.77016413
H -1.6031578 -0.39979678 1.7403635
H 1.42346 1.1310999 -0.38431585
H 0.15315577 0.9308494 -1.5955118
