10

N -1.2274427 -0.7077163 -0.29582492
C -0.6276687 -0.0068531525 0.6950117
O -1.1178008 0.20242333 1.7840024
C 0.76551574 0.55793244 0.3805168
C 1.3046037 0.19340241 -0.92722124
N 1.6818327 -0.12193212 -1.9719882
H -2.1413674 -1.0961965 -0.11367556
H -0.7869892 -0.88508713 -1.1833364
H 0.7053071 1.6476742 0.46331504
H 1.4440097 0.21635315 1.1692002
