11

C -0.3174006 -0.11835126 1.2304913
C -1.8526042 -0.013704129 -1.8562518
N -1.0048091 0.2057197 -1.0742737
C 0.08574591 0.4118167 -0.139645
N 1.3142545 -0.19185385 -0.58979744
H 1.193838 -1.1970395 -0.6816891
H -0.48744163 -1.1996815 1.1844578
H 0.2449681 1.4937649 -0.08851286
H -1.2376735 0.36120754 1.5753242
H 0.4870178 0.082654 1.9431164
H 1.5741045 0.1654676 -1.5032196
