11

C 0.24777313 -0.2915047 -0.25252244
C 0.6567279 -1.3997418 1.3271395
N 1.1839813 0.689171 -0.43137693
C -1.2022136 0.12219414 -0.33375347
N 0.12996155 -0.4820767 1.8724395
H 1.051499 1.5125908 0.14272219
H 0.46738765 -1.1751165 -0.84190714
H -1.8474761 -0.703017 -0.027587285
H -1.4161284 0.38275328 -1.37728
H -1.4127209 0.9831823 0.30391297
H 2.1412084 0.3615652 -0.38178673
