11

C 0.07385933 0.55520812 1.14679890
C -0.27456492 0.19097349 -0.29084234
N 0.89999506 0.18748193 -1.12551915
C -1.47073229 -2.14382113 -0.34493229
N -0.96767908 -1.08361867 -0.30885856
H -0.82529957 0.57837909 1.76870320
H 0.55202959 1.53829995 1.16129925
H -0.97399295 0.92580850 -0.70241985
H 0.65906302 -0.05768993 -2.08018306
H 1.56068632 -0.50945545 -0.79219086
H 0.76663596 -0.18156606 1.56814492
