11

O -0.3791199 0.9184172 -2.2421594
C -0.23633029 0.47991788 -1.1194187
C -1.1789576 0.51720047 -0.017654888
C 1.1932393 -0.68145865 0.48958817
N 0.34736416 -0.6449647 1.4625685
C -0.8526282 -0.03018413 1.1826316
N 0.9639049 -0.16522369 -0.747274
H 1.6714498 -0.22939795 -1.4657567
H -1.5561918 -0.00495048 2.012156
H 2.16334 -1.1494366 0.6356639
H -2.1360707 0.9900807 -0.19034457
