11

O 0.17643644 -0.37521386 2.5808516
C 0.7883212 -0.47897097 -0.9884726
C 0.035762787 -0.2028988 1.3835194
C -1.1477698 0.6326985 -0.50953573
N -1.1026124 0.42671764 0.86114717
C 0.98244685 -0.6554779 0.3722149
N -0.29348907 0.1344534 -1.4735736
H -0.6894566 1.6578037 -0.34866637
H 1.8824902 -1.1483527 0.72999024
H -2.1576822 0.82487696 -0.89123327
H 1.5255525 -0.8156358 -1.7162415
