9

O 2.4877603 1.599919 0.43905684
C 1.5829424 0.9950922 -0.02325879
C -1.2423997 -1.0863657 -0.12221798
N -0.25687125 -0.58336073 -0.7613848
C 0.44442624 0.45773375 -0.33511117
N -1.6998312 -0.5379349 1.1183821
O -0.91736364 0.3144998 1.5122031
H -1.8209401 -1.9082305 -0.5284066
H 1.4222766 0.7486471 -1.2992626
