11

N 1.599822 0.91571456 0.31110078
C 1.1506696 -0.008890759 -0.5262502
C -0.22124448 -0.28976348 -0.3173014
N -1.0361165 -1.157014 -1.0628704
C -0.58087206 0.5405802 0.7235544
N 0.54478544 1.2372276 1.05308
H 1.8202595 -0.44325256 -1.2571584
H -1.520868 0.69341975 1.2338176
H 0.6479805 1.9327615 1.771485
H -1.8646513 -1.4384322 -0.5579203
H -0.5397653 -1.9823505 -1.3715371
