11

O 1.5372449 1.432182 -0.9576676
C 0.55179656 0.045973036 0.85150474
C -1.2707286 -0.5440817 -0.31943607
C -0.6151167 -0.7234948 0.89967
C 0.57209307 0.662169 -0.4019564
N -0.5193307 0.40071827 -1.1345634
H -0.57666993 -0.83816975 -1.3627046
H 1.3140388 0.12521972 1.6188713
H -0.9506615 -1.3422381 1.7207423
H -2.3001883 -0.7426614 -0.59095216
H 2.2575226 1.5243839 -0.32350788
