10

N -0.7361511 0.18535422 0.98942757
C 0.19321387 -0.113478325 -0.0062198746
C -0.4515138 0.1589212 -1.1524172
O -1.7246069 0.5886164 -0.8351379
C -1.9253018 0.62180394 0.5011947
N 1.4400887 -0.65715766 0.31574842
H 1.9856808 -0.05254445 0.9195071
H -0.5776542 0.04096991 1.9746025
H 1.9781799 -0.8766924 -0.51182246
H -0.18193603 0.10420718 -2.1948829
