10

N -0.5659004 1.1632378 -1.2881832
C -0.15278262 0.25032076 -0.32472935
C 0.6867117 -0.8107492 -0.394001
O 0.6894927 -1.412127 0.8460143
C -0.14917995 -0.67492145 1.5756396
N -0.6826449 0.32391557 0.9541626
H 0.14655513 1.4193101 -1.9573289
H -0.97480744 1.983625 -0.8638171
H 1.3041288 -1.2662766 -1.1512641
H -0.301573 -0.97633487 2.603507
