12

N 0.08715717 -0.79288883 1.70134827
C 0.26739948 0.25485980 0.83517471
O 0.93723764 1.28726755 1.37527165
N -0.14924021 0.27973073 -0.37329269
C -0.18701547 0.87432725 -1.67350751
C -0.56927471 -0.57623182 -1.44362138
H -0.51149151 -1.52441076 1.34404100
H -0.12309484 -0.51373005 2.64709351
H 0.84104626 0.96308784 -2.05826802
H 0.91305564 2.00721673 0.72689568
H 0.11889725 -1.40894365 -1.62598290
H -1.62467671 -0.85028479 -1.45515263
