12

N -0.29020083 -0.8356035 1.7684989
C 0.09848052 0.2921612 1.0847197
O 0.8512152 1.1301872 1.5316999
N -0.49761093 0.37572747 -0.1848033
C 0.26921433 0.9354785 -1.2732704
C -0.06889317 -0.51139045 -1.2559088
H -1.1398491 -1.2916241 1.475443
H -0.103713624 -0.81432635 2.7598314
H -0.2778872 1.6100743 -1.9265335
H 1.2949114 1.2166567 -1.0542245
H -0.8686775 -0.89725196 -1.886767
H 0.7330109 -1.210089 -1.0386857
