12

N -0.08813146 0.47156268 -0.09864498
C 0.7106772 -0.37011018 0.4380972
O 2.0286891 -0.1289943 0.5427939
N 0.33378166 -1.5820862 0.95731294
C -0.33229634 1.6621445 -0.8525873
C -1.3810865 0.5747325 -0.70883155
H 2.170514 0.78482527 0.25275514
H -1.5581094 -0.18637791 -1.4766982
H -2.2207382 0.7397743 -0.032919127
H 0.19196618 1.5899631 -1.8183868
H -0.6662372 -1.7243539 0.9872333
H 0.8109707 -1.8310798 1.8098752
