12

N 0.09913398 -0.38496006 0.36609456
C 0.6794883 0.5168476 -0.39826956
O 1.0121593 1.6487541 0.17702246
N 0.9389106 0.3256502 -1.686794
C -1.1939138 -0.9926846 0.5035888
C -0.68982416 0.043123465 1.5234475
H -1.9506909 -0.68352014 -0.21751599
H 0.4050763 1.6415488 0.97127855
H -1.1696211 -2.0680904 0.68920153
H 1.3639423 1.052881 -2.2365277
H 0.8172674 -0.5917437 -2.0878727
H -0.31192833 -0.5078063 2.3963468
