11

N 1.4745759 0.37098676 1.3602318
C 0.43748805 0.19880128 0.43946165
N -0.28043675 1.2313939 0.02500012
N -1.2151641 0.6851048 -0.77863353
C -1.098948 -0.65293247 -0.8927075
C -0.026937027 -1.020773 -0.10765721
H 2.2859113 -0.1969152 1.1574155
H 1.7318453 1.3451263 1.4461309
H -1.8927275 1.2882813 -1.2117668
H -1.7744073 -1.2350136 -1.5024934
H 0.35880002 -2.01406 0.06501869
