12

O 1.25042078 1.24991027 0.64535772
C -0.36013869 -0.39516549 -1.74933424
C 0.04663140 0.68507609 1.08714528
O 0.68219619 0.20882097 -1.84560185
C -0.18757741 -0.74303325 0.60986922
O -0.92017731 -0.84938477 -0.63814826
H -0.83800333 1.28731147 0.81995845
H 1.28923935 1.11005866 -0.31769345
H -0.99513765 -0.66174142 -2.60419360
H 0.76959755 -1.26066819 0.50672154
H 0.09518627 0.65510907 2.18123676
H -0.83223719 -1.28629305 1.30468230
