11

N 1.0664076 -0.97292596 1.0890204
C 0.38605064 0.92480934 -0.2382441
C -1.0019912 -1.2023066 -0.30632704
C -0.8089377 0.14775242 -0.6442828
C 0.061843164 -1.6272665 0.6400781
N 0.62498564 2.0706294 -0.7152813
O 1.2211258 0.3477688 0.6830598
H -1.6611414 -0.1395804 0.20700587
H 1.5010319 2.4465883 -0.35084864
H -1.4397709 0.65098906 -1.3767384
H 0.05039638 -2.6464581 1.0125582
