11

N 0.40226265 1.47982201 -0.92371906
C -0.80969120 -0.60796220 -1.27261362
C -0.55663127 0.78477844 -1.49095351
C -0.20293550 -1.09861920 -0.01451586
C 0.35108749 -0.04964181 0.90257088
N 0.35861274 -0.07848594 2.15529407
O 0.93444463 1.03291280 0.22978945
H 0.60732885 -1.77499292 -0.34566293
H -1.00268142 1.30165729 -2.33336840
H -0.88677834 -1.74453020 0.54744685
H 0.80498140 0.75506173 2.54573203
