11

N 0.96899194 0.46081877 -2.1418774
C 0.57844245 0.2409422 -0.9573033
C -0.79887366 -0.11843886 -0.6436902
C -1.1517204 -0.33964917 0.6263581
C -0.12470822 -0.20736197 1.6406006
N 1.0975386 0.10382984 1.4176279
O 1.4610858 0.33419123 0.10316003
H 1.9600277 0.6986732 -2.1629024
H -1.4769626 -0.18809073 -1.4858385
H -2.1623962 -0.61084455 0.91449416
H -0.35142538 -0.37406996 2.6893709
