11

N 0.4642246 0.33728406 -2.9252045
C 0.3595715 0.6290322 -1.8131838
C 0.20797615 0.9674386 -0.39284724
C -0.5970558 -0.087894015 0.3422688
C 0.059405282 -1.1812872 1.0532928
O -0.47467783 -0.06094058 1.7494472
H -0.28302267 1.9441975 -0.30931538
H 1.1962564 1.0580723 0.069372356
H -1.6125797 -0.2375558 -0.023812084
H -0.46678582 -2.1224968 1.2058228
H 1.1466879 -1.2458503 1.044159
