11

N 0.54685797 -2.01139828 -1.49924034
C 0.43632855 0.46155576 1.41803139
C -0.16825914 1.04686264 0.22605764
C -0.48636661 0.24839913 -0.99113810
C 0.01445003 -0.94454843 -1.21738486
O -0.94071643 0.80707619 1.39847337
H 0.00227267 2.10666544 0.03301838
H -1.17678552 0.66128885 -1.71892565
H 1.06904339 1.07053085 2.06191432
H 0.06103095 -2.83609135 -1.15097770
H 0.64214414 -0.61034083 1.44017149
