10

C -0.05039354 0.08510945 -0.63303953
O 0.11301052 0.94013417 -1.5793347
C 0.22727476 0.7332587 0.6163266
O 0.59252506 -0.094850846 1.6912594
N -0.33544585 -1.1956097 -0.8532412
H -0.19398032 -1.601908 -1.765651
H 0.63819844 1.5310218 -0.652077
H -0.34676978 -1.8045425 -0.048650786
H -0.08853931 -0.053989537 2.3717587
H -0.55587995 1.4613763 0.85264975
