10

N -0.61401660 -1.09227909 1.16979637
C 0.03814772 0.09438650 -0.41046897
N 0.31401917 0.50124673 -1.70801540
N -0.41061237 -1.12753294 -0.14134278
N -0.32808512 0.03394325 1.77913674
C 0.09328585 0.82363105 0.79565311
H 0.39770067 1.84209836 0.98730659
H 0.35863036 -0.28115918 -2.34690806
H 1.12599383 1.09452101 -1.79376513
H -0.97506373 -1.88885569 1.66860777
