10

N 0.975197 1.4192678 0.5563205
C 0.25750697 0.31877187 0.10065846
N 0.24485609 -0.02638281 -1.1816653
N -0.47231007 -1.1409214 -1.1872338
N -0.9381243 -1.548738 -0.028501732
C -0.48685977 -0.6358618 0.8254596
H 0.50478977 1.949181 1.2751675
H 1.2549766 2.0215616 -0.2066045
H -0.6420758 -1.6533725 -2.0372872
H -0.6979567 -0.70350575 1.8836867
