9

O -1.665911 -0.6266924 0.66303027
C -0.6524849 -0.07425953 -0.025009397
N -0.7515328 0.7613454 -0.9633757
N 0.6103517 -0.6163612 0.3939334
C 1.6782612 0.10153361 -0.15541843
N 1.5399808 0.56357473 0.9895068
H -1.2760174 -1.2311128 1.3189598
H 2.2465093 0.14827225 -1.0690217
H -1.729157 0.97369987 -1.1526049
