11

N 2.3913333 -0.065327585 0.57521987
C -0.8826935 -0.7697715 -0.5741441
N -0.8509661 1.1725904 0.9509126
N -0.33900172 -1.5769013 -1.3958687
C -0.111758046 0.19203246 0.22676009
C 1.2067422 0.09195922 0.30628878
H -0.3805269 1.4651669 1.7973102
H -1.0505527 -2.1629586 -1.827914
H -1.0657796 1.9896822 0.3910146
H -1.9612916 -0.70688504 -0.3764073
H 3.044495 0.37041315 -0.073172145
