11

O 1.5869545 -0.024739258 -0.15263854
C -0.70271003 -0.76387876 0.21429747
N -0.3350186 -0.22677585 1.5045205
C -0.6550423 0.7023131 0.44577453
C 0.52020663 0.8114214 -0.59126675
C 0.4759077 -0.6223044 -0.8166522
H -1.5463676 -1.435796 0.12387507
H 0.76170754 1.632696 -1.2557787
H 0.6774219 -1.2143312 -1.7004075
H 0.66965747 -0.2806737 1.6530839
H -1.4527173 1.4220688 0.575192
