11

O -1.4750801 1.628339 1.2684821
C -0.7513998 0.84238964 0.6917188
N -0.75864446 0.5622247 -0.6534902
C 0.22321515 -0.4273747 -1.0337427
C 0.8741106 -0.7461289 0.28865412
C 0.32491776 -0.026755614 1.2644391
H -1.3989824 1.012987 -1.2849115
H 0.95133793 -0.03233142 -1.7539378
H -0.23530808 -1.3181981 -1.4818925
H 1.6763308 -1.4706932 0.3763509
H 0.5695026 -0.024458311 2.3183298
