11

N -1.6895499 -0.97527224 -0.9335156
C 0.6290643 -0.95672655 0.052274697
O -0.46766427 1.0923063 0.31484655
C 0.8343697 1.2641188 0.10433097
C -0.7922372 -0.56958437 -0.11214993
O 1.4867172 -0.07650522 0.36532837
H -0.8795114 -0.8383352 1.0302254
H 1.3369758 1.9304204 0.81373245
H 1.1115779 1.4926572 -0.93423605
H -2.5087025 -0.36889702 -0.8888753
H 0.93896025 -1.994182 0.18803848
