10

O -0.9527883 1.8529276 0.9987322
C -0.29498833 1.1058217 0.027423792
C -0.1365274 -0.33638602 0.46517277
O -0.5647345 -0.7033525 1.5376881
C 0.5397075 -1.2340181 -0.45947027
C 1.0997429 -1.9481772 -1.247664
H -1.1503111 1.2377629 1.7247194
H 0.7083088 1.508243 -0.18185101
H -0.8446421 1.1115438 -0.9257904
H 1.5962325 -2.5943654 -1.9389608
