9

O -0.98514336 0.60923133 -1.33817739
C -1.53139390 -0.55967613 -1.07311253
C 1.38667579 -0.52490831 0.74236867
O 1.04933583 -0.91712482 1.97986591
C -0.08784918 1.13241571 -0.39961608
N 0.59996998 0.40468702 0.33209264
H -2.08598646 -0.74926281 -2.02259866
H 1.67616528 -1.60879546 2.22563021
H -0.02177414 2.21343378 -0.44645247
