9

O 2.0956352 -1.1097237 -0.4887935
C -1.825434 -0.2661629 -0.63790536
C -0.38984203 0.55833143 0.993008
O -1.6341116 0.5815745 0.35190812
C 1.584465 0.13020647 -0.47119716
N 0.64882165 0.22153503 0.4049367
H -2.827924 0.06247854 -1.0012902
H -0.44012415 0.92983764 2.010168
H 2.788514 -1.108077 -1.160835
