11

N 1.3546827 0.5321545 -1.1887769
C -0.59793586 -0.8069438 -0.3734331
C 0.37807655 0.15863794 -0.25257924
N -0.7453345 0.019695109 1.714154
C 0.23320088 0.6375249 1.0721922
N -1.2320719 -0.84925574 0.8306793
H -1.9923946 -1.4491365 1.1026556
H -0.877028 -1.4512403 -1.193927
H 0.8128552 1.4030423 1.5725876
H 1.0988075 0.28520137 -2.134341
H 1.5671418 1.5203202 -1.1492112
