9

O 1.1236589 0.59580135 -1.1045309
C 0.8083433 -1.0179194 -0.43951395
N -0.34557977 -0.19512606 -0.98222864
N 0.7508688 -0.836752 0.9465884
C -0.9812973 0.30979443 0.09916191
N -0.31384587 -0.09197691 1.1801007
H -0.58949953 0.08620983 2.1385655
H -1.8899583 0.895799 0.114854395
H 1.4373099 0.2541699 -1.9529974
