12

O -0.98181023 0.68557455 1.20530799
C -0.82113822 -0.44835549 0.40086758
C 0.61958071 -0.79870218 0.10965237
O 1.56552964 0.08408018 0.64427580
C -0.24209072 -0.18729430 -0.96943564
O 0.00570819 1.16544413 -1.22943696
H 0.94891521 -1.83207687 0.04083704
H 1.10424145 0.56053033 1.35422710
H -1.55417131 -1.23234362 0.56805654
H 0.90291970 1.32982719 -0.89258567
H -0.56827217 -0.76821460 -1.82694667
H -0.97941219 1.44153077 0.59518069
