12

C 1.4017738 -0.29241052 0.8821365
C 0.3368471 -0.50527126 -0.18655045
C -0.5915529 0.6929553 -0.31610513
O -0.22373681 1.8326955 -0.10522138
N -1.8688785 0.3982367 -0.7026305
H 2.1157176 -1.1213851 0.89001584
H 1.9423486 0.6392374 0.69433856
H 0.95104104 -0.22148415 1.8767365
H -0.24538833 -1.4148391 0.013428155
H 0.8118152 -0.6449254 -1.1657417
H -2.1438522 -0.5314246 -0.9672763
H -2.4861348 1.1686152 -0.91313
