12

C 0.74054605 -0.02264158 0.05342854
C 0.38103954 -1.14477425 -0.92469290
C -0.46463432 0.75707195 0.51574747
O -1.06350962 1.38468143 -0.52392210
N -0.93948418 0.87642598 1.68326241
H 1.24929733 -0.42789501 0.93511031
H 1.43228987 0.67517660 -0.43332430
H -0.38386826 0.35663359 2.35908812
H -0.29182463 -1.87391441 -0.46026861
H 1.28297663 -1.67656923 -1.24336449
H -0.11253435 -0.74521985 -1.81565994
H -1.83029425 1.84102475 -0.14540441
