11

C 1.3804682 0.007374921 0.023098364
N 0.23958792 -0.62433964 -0.63019276
C -0.997711 -0.5017459 0.109010994
C -1.4269816 0.90263456 0.33819887
N -1.7077062 2.015487 0.46896926
H 1.249672 1.084227 0.2103362
H 2.2668502 -0.1369893 -0.6008183
H 1.5626804 -0.48957634 0.98290926
H 0.117055975 -0.24202399 -1.5616881
H -1.7973989 -1.0250199 -0.42477602
H -0.8865166 -0.9900279 1.0849524
