11

C 1.31805477 -0.78800425 -2.12686458
N 0.36721395 -0.34580358 -1.60489241
C 0.31793513 -0.24946607 1.30345879
C -0.72358891 0.21274466 -0.83375048
N -0.32349918 0.73443383 0.43674488
H 0.27761434 1.53794821 0.29807283
H 1.22268260 -0.69528652 0.86630227
H 0.57918027 0.23230679 2.24897005
H -1.18591239 1.00184252 -1.43131697
H -1.45668686 -0.58611159 -0.67660520
H -0.39299333 -1.05460350 1.51988099
