11

N -1.6228943 1.9598294 -0.060977113
C 0.30263478 0.8115033 0.58164114
C 0.8520079 -0.3253643 0.37794888
C 0.926608 -1.5600431 -0.18856415
C -1.0806006 0.8112405 -0.26865146
O -1.3338083 -0.22393668 -0.91559786
H 1.450761 -1.696099 -1.1324781
H -2.499451 1.9810241 -0.58762836
H 0.53391826 -2.4259274 0.33999208
H 0.5799193 1.6739979 1.1686536
H 1.8909053 -1.006225 0.6856611
