12

N 0.47291848 2.7851083 0.06698431
C -0.6079851 -0.41903383 0.7942348
C 0.5526152 1.6459353 0.20160586
C 0.9908755 -0.5269668 -0.97794574
N -0.25425327 -0.8514739 -1.4382747
C -1.1602753 -0.841185 -0.5403022
N 0.6732215 0.24917474 0.3660333
H 1.5795143 0.14326258 -1.6021397
H -2.155241 -1.2408254 -0.6847027
H 1.4255472 0.057157725 1.0273649
H -1.2246532 0.2694014 1.3736027
H -0.29228413 -1.2705551 1.4135392
