13

C 0.20789742 -0.13791081 0.17316897
C -1.0838474 -0.13582969 -0.6159004
N 0.41825002 0.8254993 0.97432643
O -1.2539852 1.0565605 -1.3400345
C 1.2272556 -1.2221069 0.03670958
O -0.4721911 1.8849636 1.1261402
H -1.9113225 -0.30441856 0.09258073
H -1.068755 -0.96715313 -1.3271435
H 0.69359106 1.7515296 1.5852245
H 2.069805 -1.0650475 0.71448785
H -1.200311 1.7621437 -0.6734673
H 0.7740216 -2.1982696 0.24758634
H 1.5995917 -1.2499604 -0.9936788
