12

O 1.0419482 1.1034762 -1.0122901
C 0.6001419 1.0156835 0.31821468
C -0.4466589 -0.08937613 0.4492169
O -1.4926628 0.18631016 -0.44561645
C 0.15612282 -1.4370569 0.112909585
O -0.32957512 -2.1439104 -0.73679245
H 0.23739018 1.1357994 -1.5500829
H 0.15969221 1.9595253 0.66897637
H 1.4737263 0.7935201 0.9413794
H -0.804563 -0.13461839 1.491965
H -1.6400616 -0.64045185 -0.9353605
H 1.0444998 -1.7489011 0.6974803
