12

O -1.2965372 0.9413425 -1.1840947
C 0.10205716 -0.1160693 0.9594917
C -0.6418906 1.654654 -0.46251258
O -0.17421103 -1.600783 -0.97813845
C 0.73040503 -1.062475 -0.056830674
O 0.1083845 1.2770907 0.564643
H 1.1482633 -1.9075366 0.50053614
H 1.5731746 -0.540771 -0.54024655
H 0.68557495 -0.09906175 1.8820504
H -0.58808696 2.746609 -0.5542821
H -0.9248461 -0.42513892 1.1756892
H -0.72228783 -0.8678603 -1.3063056
