10

O -1.7669009 -1.1074382 1.2110014
C -0.8772781 -0.5491202 0.6015615
N -0.8663243 -0.13924628 -0.7227108
C 0.3449183 0.46534625 -1.0505497
C 1.1126667 0.44831112 0.052468125
N 0.37385315 -0.1670593 1.0597773
H -1.6503913 -0.28511313 -1.3340371
H 0.5468117 0.8525379 -2.0362828
H 2.112238 0.8170696 0.21329242
H 0.670407 -0.3352876 2.0054798
