10

O -0.16220756 1.3573227 1.5235524
C -0.8883415 -0.12849674 -0.36708546
N 1.2171102 -0.9038041 -0.75778306
C -0.04589239 -0.96908784 -1.1342808
C -0.020005146 0.4633722 0.5239751
N 1.2111385 -0.017362436 0.26230827
H 2.0671463 0.21509634 0.7386348
H -0.32778963 -1.6195159 -1.9506601
H -1.954052 0.020631684 -0.45223242
H -1.0971069 1.5818441 1.6135713
