10

O -0.17467689 -0.65271300 1.93217542
C -0.83163568 -0.21145056 -0.45175705
N 1.15173966 0.78271819 -0.96607574
C -0.02923749 0.42215921 -1.43134798
C -0.02803745 -0.20843862 0.66740629
N 1.13162643 0.38633668 0.32577485
H -1.83239929 -0.60445919 -0.54790584
H -0.28227649 0.62438807 -2.46288694
H 1.93035959 0.54370399 0.91817190
H -1.03546213 -1.08224461 2.01644523
