11

O 0.1879041 -1.9073515 1.131238
C 0.027776605 -0.764299 0.4154877
C -0.8763528 -0.36739603 -0.5382211
C -0.5016861 0.96408504 -0.9088561
C 0.59644413 1.3149289 -0.17648537
N 0.9144202 0.2413418 0.63747466
H -0.5044661 -2.520882 0.86406964
H -1.7007023 -0.94936097 -0.924736
H -1.0014607 1.5811054 -1.6401298
H 1.1825953 2.219474 -0.15402798
H 1.6755277 0.18835446 1.2941867
