10

C 1.6621917 0.2347855 1.3660779
O -0.9798065 0.8638541 -0.6880632
C -1.2831379 -0.49813884 -1.0884131
O 0.6056112 0.014199619 0.5083538
C -0.00613741 1.1770217 0.113345124
O 2.3030853 -0.6691001 1.801778
H -1.5415262 -1.0986807 -0.212999
H 1.8039567 1.308917 1.5644705
H -2.1363149 -0.3965073 -1.7565831
H -0.42792264 -0.9363511 -1.6079671
