10

C -0.99027246 0.38547945 -1.3126311
O -0.53633076 -0.39542854 -0.19592962
C 0.5232573 0.09409522 0.4344697
O 1.114436 1.1053224 0.14678821
C 0.96375704 -0.7651266 1.6144772
O 0.4086013 -1.7766734 1.9464399
H -1.8500193 -0.15451574 -1.7066879
H -1.2795303 1.3869939 -0.9842804
H -0.20414224 0.46547812 -2.0668576
H 1.8502432 -0.34562495 2.1242118
