10

O -0.737215 -1.4738705 -0.29285112
C -0.016679825 -0.43214446 -0.6828613
C -0.645704 1.0295962 -0.451356
O 1.1063097 -0.78852826 1.5773555
C 0.55172545 -0.08691517 0.6468436
O 0.024488099 1.0754429 0.886996
H 0.63203293 -0.4834963 -1.577568
H 1.1041255 -1.7061424 1.2388372
H -1.7214224 0.9959106 -0.2934765
H -0.2976607 1.8701475 -1.0519192
