11

N 0.78238701 -0.95635165 -1.55427311
C 0.32758414 -0.38696944 -0.34557624
C 0.85526834 -0.76894581 0.92575852
N 1.23449493 0.39272770 0.55686839
C -2.01111173 1.35377987 1.24966486
N -1.46485871 0.81335017 0.34523108
N -1.01811950 0.10570516 -0.56372185
H 1.77529984 -1.15972333 -1.52421473
H 0.57576501 -0.36111996 -2.34567515
H 1.01922441 -1.43502906 1.76401593
H -2.07593362 2.40257648 1.49192241
