10

N 0.70515645 1.70667341 0.59300585
C -0.55990206 -0.83091442 0.00430410
C 0.35488597 -0.27126127 -0.75181335
C 0.99737228 1.02113371 -0.44040032
C -1.46695547 -1.41427658 0.73172238
H -2.52355860 -1.21406207 0.57699977
H 0.66944828 -0.77578489 -1.66331475
H -1.19034971 -2.11078796 1.51931609
H 1.74546306 1.33186937 -1.18066611
H 1.26843942 2.55741060 0.61084628
