11

N 1.1977459 0.3562364 0.27180752
C -0.114109576 0.21555707 1.0616196
O -0.4617134 -0.08310371 -1.2458032
C -1.0295041 -0.48849663 0.022698775
C 0.77012455 0.32383335 -1.0077397
O -0.25515056 1.4899906 1.1748388
H 0.055133607 -0.40748093 1.9604913
H -0.994988 -1.5821128 0.077529475
H 1.6191822 -0.5647767 -0.5576999
H -2.0522249 -0.11338557 0.0645285
H 1.265504 0.8537391 -1.822271
