11

N 0.6944742 0.9755749 -0.4922433
C -0.8374072 -0.48028725 0.62134033
O 0.08037457 -1.2574736 -0.1157068
C -0.59722537 0.92335916 0.11252964
C 1.1556888 -0.4190849 -0.4661929
O -0.54019773 0.9957637 -1.2756073
H -1.8484248 -0.84794676 0.423609
H 1.5389985 -0.72519445 -1.44248
H 1.961704 -0.44609234 0.28192005
H -0.6428104 -0.51502943 1.704234
H -0.96517473 1.796411 0.6485975
