11

C 0.63060886 -0.01955203 0.09723608
N -0.7515635 0.6759342 -2.0661733
C -0.56121343 -1.0209088 0.033643007
C -0.077802755 0.35951182 -1.1058997
N 0.698572 0.8490978 1.2404065
H -1.2830466 -0.832086 0.82944465
H -1.1866957 -0.33521 -1.3733597
H 1.5967273 -0.48181832 -0.10530932
H 1.3856901 1.5794858 1.0993825
H -0.25237095 -2.061639 -0.060517747
H -0.19890556 1.2871847 1.4111469
