13

C 0.28012657 -0.09876855 -0.13085319
N -0.75218254 0.54836094 0.2967379
C -0.8129057 -0.725943 1.9622245
O 0.64210075 -1.0742743 0.58361876
C 1.0543743 0.2500421 -1.3859925
O 0.42440954 1.2294937 -2.1786046
H 2.019662 0.6670903 -1.0812764
H -0.35986447 0.8316108 -2.574797
H -1.8626945 -0.4603289 1.9319172
H -0.64264977 -1.7904156 2.0766745
H 1.2600863 -0.6778832 -1.9355358
H -0.2166322 -0.100988224 2.6122465
H -1.0338302 1.4020038 -0.17635955
