13

C -0.45703533 -0.29469734 0.29149732
N 0.14857647 -0.8979853 1.2202444
C 1.5878907 -0.7258543 1.2993059
O -1.7905527 -0.40950105 0.13890254
C -0.7241287 1.1020399 -1.6069556
O 0.11800888 0.50190777 -0.6214927
H 1.8622018 0.31774434 1.4950293
H -0.051343977 1.6993148 -2.2215862
H -1.2180163 0.34000382 -2.2177432
H -2.0517936 -0.9959265 0.8638716
H -1.4797624 1.7409408 -1.1410534
H 1.9638249 -1.3397356 2.1232033
H 2.0921304 -1.0382514 0.37677678
