9

O -0.31580302 1.8655527 -0.6839112
C -0.09761602 0.6249228 -0.22206119
N -0.2206747 -1.5620495 0.050567795
N 0.7569832 0.341093 0.74569994
N 0.6352709 -0.9779984 0.85907525
C -0.7154567 -0.5594384 -0.66515803
H 0.24161746 2.475382 -0.18261756
H -1.4583272 -0.70897883 -1.4331131
H 1.1740061 -1.4984854 1.531518
