9

O -1.9673637 0.42301232 0.07512217
C -0.6576758 0.13544273 0.03061041
N -0.10915136 -0.8946788 0.6550983
N 1.1745285 -0.78308547 0.32925913
N 1.496832 0.22599088 -0.44835117
C 0.33828783 0.8436835 -0.6627806
H -2.3975174 -0.23740663 0.63457763
H 1.8612341 -1.440819 0.6613387
H 0.26082587 1.7278606 -1.2748744
