9

N 1.7110978 0.43817654 -0.6709231
C -1.42264 -0.46248826 0.74721956
N -0.09425238 -0.42895228 0.34929916
C 0.42938343 0.6635795 -0.28311914
O -1.9257966 -1.3958758 1.319572
H -1.9510335 0.46832815 0.47416273
H 2.071914 1.332205 -1.0254595
H 0.696262 0.616864 -1.501235
H 0.4850654 -1.2318368 0.59048337
