9

N -0.26911426 0.03121462 -0.38570369
C -0.02558948 0.01714937 -1.75315471
N 0.31484801 -0.04833405 1.76318331
C 0.75453116 -0.10100871 0.50663213
O -0.89523764 0.13592220 -2.57882213
H 1.04543714 -0.11557949 -1.96857233
H -1.25659383 0.14222154 -0.14042616
H 0.98639519 -0.13555940 2.50767511
H -0.65467597 0.07397394 2.04918799
