14

C -1.827379 0.8303736 -0.89237666
N -0.9863344 -1.5820639 -0.279218
C 1.8484473 0.4702169 0.8313221
O -0.5208412 0.65350604 -0.35672867
N 1.1402533 -0.68966717 0.322219
C -0.16939029 -0.61938775 -0.101338826
H 1.3761871 -1.5656784 0.76083785
H -2.5876951 0.46756893 -0.19589019
H 1.4501139 0.83491164 1.7863786
H -1.9288311 1.90552 -1.0478935
H 2.8965929 0.19069888 0.9650345
H -1.9348334 0.2953468 -1.8400664
H 1.7966719 1.2815855 0.10404073
H -0.5529615 -2.472931 -0.056320302
