14

C 1.9257753 -0.23972447 1.2469808
N -1.5341556 0.18816118 0.11165278
C -1.3562611 0.20035318 -1.9660705
O 0.33226338 -0.08267819 -0.96872014
N 0.47628707 -0.23090588 1.3054951
C -0.2520006 -0.0333201 0.15763935
H 0.04623279 0.08835901 2.1578844
H -2.1141748 0.12997408 0.94239986
H -2.382125 -0.14884742 -1.8988762
H 2.322611 -0.7190543 2.1459622
H 2.3563793 0.7664499 1.1582541
H -0.7856889 -0.3729979 -2.690505
H 2.2312865 -0.819014 0.3722731
H -1.2664297 1.2732447 -2.0743701
