14

C 1.98023845 0.63726106 -0.03888014
N 1.23032423 -0.59915824 0.08339711
C -0.14644126 -0.61670135 0.14435451
O -0.65960055 0.53615366 -0.32104123
N -0.89933933 -1.56472966 0.54456803
C -2.08003293 0.58772119 -0.39142996
H -2.46557127 -0.19706911 -1.04822547
H 3.02851900 0.37796052 -0.20766890
H 1.62050427 1.20232907 -0.89982575
H 1.66820585 -1.31569881 0.64042156
H -0.34959840 -2.36425924 0.84402922
H -2.52506852 0.46659361 0.59956582
H 1.90774143 1.27635258 0.85000167
H -2.30988103 1.57324489 -0.79926654
