10

C 0.5963476 1.3846117 -0.5836937
O -0.40521738 0.38544402 -0.38641286
C -0.028708827 -0.62434167 0.43160897
O 1.0539814 -0.71558285 0.9601971
N -1.0649925 -1.5017039 0.5851351
H 0.85549307 1.866337 0.36394438
H 0.1488411 2.1091478 -1.2660276
H 1.4971629 0.95147777 -1.0240948
H -1.8289926 -1.4642084 -0.06948658
H -0.8239147 -2.3911817 0.98883015
