10

O 0.69166435 0.58670441 -0.83099395
C 0.53643444 -0.85180452 -0.67290467
C -0.41995884 -0.63257782 0.50894552
C -0.16665397 0.82453859 0.21537308
N -0.56572876 1.89932345 0.71449048
H 1.49562527 -1.32061989 -0.44031598
H -0.06035530 -0.96205905 1.48491899
H 0.09967733 -1.29348596 -1.57132093
H -1.45419331 -0.94988844 0.35874871
H -0.15651122 2.69986911 0.23305891
