10

N 0.6356139 1.1025599 0.40479645
C -0.07153937 0.003501721 0.2175359
N -0.9618868 -0.83273196 0.9959843
N 0.829247 0.2757663 -1.7101259
N 1.1590002 1.2108397 -0.8112699
C -0.004990454 -0.56076634 -1.0454834
H -0.53446686 -1.3365103 1.7713654
H 1.7799535 1.9708934 -1.0365691
H -1.8356625 -0.3951516 1.2858537
H -0.9952685 -1.4384007 -0.07208771
