10

O 0.6564714 0.09427208 -0.8026743
C 0.95808184 -1.2366174 0.24206915
C -0.91829985 0.27247354 0.5929204
C 0.23830777 1.1586126 0.123239234
O -1.8792449 0.420826 1.2857338
C -0.37915978 -0.8413476 -0.27545562
H -0.062146362 2.038082 -0.453365
H 1.0298607 1.3750197 0.84000283
H 1.3450516 -1.9307528 -0.52834743
H -0.98892266 -1.3505679 -1.024123
