10

O 0.44732928 1.7328992 0.28121996
C -1.0997897 -0.19789115 0.07533885
C -0.33073547 -1.2677641 0.39865306
C 0.12602861 0.57264125 -0.27108064
N 1.0075822 -0.9671525 0.15028064
N 0.9604361 -0.029535675 -1.1323067
H -0.23813918 1.9528148 0.93068683
H -2.1405187 -0.011500229 -0.1412219
H 1.8613261 0.447343 -1.122592
H -0.5935193 -2.2318547 0.83102185
