10

O 0.11790716 0.63494133 -1.75435875
C 0.38126085 -0.32866940 1.32118320
C 0.57505035 -1.01877586 0.19704895
C -0.12796833 0.10730487 -0.52814243
N -1.42610316 0.31926842 0.04463794
N -0.18032968 0.88489847 0.70800433
H 0.46267733 -0.48993277 2.38836202
H 0.94626536 -1.99126204 -0.08501768
H 1.07048138 0.74678953 -1.85775380
H -1.81924117 1.13543722 -0.43396342
