10

O 1.5035118 1.0004772 -0.48303714
C 0.1319078 -1.1741366 -0.10685932
C -0.8405052 -0.85613656 0.7479904
C 0.3493546 0.3106994 -0.2970554
N -0.62201935 0.59862065 0.7560288
N -0.8768767 0.9336414 -0.7050505
H -1.6500359 -1.3531935 1.2667385
H -0.6865405 1.9396205 -0.7441203
H 2.1662414 0.66669387 0.13338509
H 0.52496153 -2.0662863 -0.56802005
