10

O 1.7111382 -1.7777318 0.8269857
C 1.1501215 -1.4683002 -0.19726649
C 0.19524843 -0.34047127 -0.26198918
N -0.3930682 -0.04007581 -1.3907328
O -1.1898226 1.0312871 -1.1209054
C -1.0653006 1.3607109 0.17837001
C -0.19917633 0.5297981 0.79524255
H 1.3144194 -2.0041018 -1.1504478
H -1.657743 2.2066483 0.5001937
H 0.1341831 0.50223637 1.8205495
