10

O -1.3799003 2.082975 -0.4998102
C -1.5243683 1.1057779 0.21022551
C 0.58873284 -0.027451804 -0.43549663
N 0.8771299 1.0300372 -1.0126444
O 1.0761644 -2.22936 0.30588898
C -0.5346105 0.10387893 0.47608685
C 1.4591913 -1.275971 -0.31149566
H -0.4967045 -0.44248226 1.4122901
H -2.5023105 0.8651598 0.6711658
H 2.4366753 -1.2125633 -0.8162106
