10

O -1.4036405 -1.167482 -1.8657664
C -1.6977067 -0.64988756 -0.8179001
C -0.67638654 -0.31619507 0.19901475
N -0.58080107 0.11735051 1.3662183
O 1.0002239 1.9728411 -0.235992
C 1.5149255 0.9510897 0.1479694
C 0.7097661 -0.22719814 0.6075369
H 2.614013 0.8169459 0.17558335
H 1.2512704 -1.1033576 0.9565263
H -2.7316637 -0.3941067 -0.5331905
