10

O 0.43499424 -0.68929041 2.06975859
C 0.58880212 -0.69873660 -0.29927778
C -0.58770043 0.12417055 -0.48608118
N -0.88311757 -1.08906798 -0.50168503
O -0.56240649 2.46790560 -0.63831506
C -1.21802539 1.45722301 -0.60534111
C 1.11439671 -0.88697330 1.09218313
H 1.26039589 -0.91694727 -1.12633390
H -2.31869744 1.44218024 -0.66735099
H 2.17135827 -1.21046396 1.16244314
