9

O 0.35940522 1.308732 -0.9998332
C -0.17648268 -0.544781 0.048400648
C 0.9035245 1.3999848 0.24294391
O -0.6752602 -1.7340634 0.41419575
C -0.24347337 0.09182988 -1.1387492
N 0.58074856 0.24177706 0.9104683
H -0.32547587 -1.9441991 1.2907163
H -0.6382104 -0.17334086 -2.106623
H 0.2152242 1.3540604 1.3384806
