9

O -1.1543751 -1.2875069 -1.0824863
C -0.3787497 -0.4748863 -0.34611848
C 0.4777668 -0.7913936 0.65168345
O 1.0303855 0.3946216 1.0826445
C 0.46867785 1.3326043 0.31640825
N -0.37722525 0.8877662 -0.5531353
H -1.634658 -0.7249053 -1.7047371
H 0.8015225 -1.692346 1.1449207
H 0.7666554 2.356046 0.49082035
