13

N -1.7779249 -2.0502632 1.5894231
C -0.97597915 -1.4054451 1.0635805
C -0.5932045 0.35939395 -0.62478083
N 0.81712484 0.13506238 1.344084
C 0.05482822 -0.6161537 0.37073645
N 0.4588674 1.1594677 -1.2318164
H 1.3744498 0.80877894 0.83001435
H -1.1996509 -0.20579186 -1.3466908
H 1.4131444 -0.47542265 1.8928862
H 0.94407 0.62358105 -1.9457706
H -1.2543604 1.0239025 -0.05659659
H 0.07570942 1.9812181 -1.6825224
H 0.66292596 -1.3383284 -0.20254697
