13

N -1.518316 0.25434792 0.17929424
C 0.12311162 2.037122 -0.13608783
C 0.8784157 -0.36374116 -0.3056462
N 0.20330824 3.148716 -0.4692302
C 0.0056540067 0.6969471 0.30823177
N 0.5026382 -1.6684915 0.25146613
H -1.0775006 0.56732213 1.1763384
H 0.72127753 -0.4343992 -1.3964374
H -1.4637532 -0.7638862 0.061868824
H -2.0753345 0.7434 -0.51812106
H 0.980642 -2.418818 -0.2393345
H 1.9294677 -0.092599265 -0.13755055
H 0.7903891 -1.7059199 1.2252082
