13

N 1.12929187 0.18221617 -1.32807887
C -0.25110265 0.22102745 -0.87149361
C -1.67200522 -0.26226918 1.09299043
N -2.74989957 -0.23131205 1.50844588
C -0.30341092 -0.34160490 0.55798285
N 0.58600740 0.42499054 1.40302349
H -0.95010231 -0.33846570 -1.50924995
H -0.05130833 -1.41605649 0.51358572
H 1.26043645 0.77516539 -2.13828377
H 1.38532464 -0.76212387 -1.60193245
H -0.57633823 1.26695729 -0.82924858
H 1.46528525 0.51497410 0.90548339
H 0.72782134 -0.03349837 2.29677506
