12

N -0.44465427 1.01222192 0.80099384
C 0.69420378 1.15697061 0.28588069
C -1.31773455 -0.12341342 0.60670973
C 0.95247648 -0.39916162 -1.67029881
N 1.38099508 0.32968838 -0.65402590
C -0.67818679 -1.45645484 0.58554344
N -0.17648110 -2.49436599 0.58891277
H -1.89578968 0.00056045 -0.31697202
H -0.14621889 -0.29915665 -1.70627711
H 1.28041801 2.02758287 0.59107675
H 2.38672071 0.36546540 -0.54229907
H -2.03574910 -0.11993723 1.43075569
