12

N -0.92777836 2.081186 1.7895939
C -0.8585158 1.2769158 0.96186966
C -0.76238 0.22432694 -0.06860184
C 0.3950743 0.47397533 -1.0830804
N 1.4852622 -0.41484857 -0.68021667
C 1.0037833 -1.1989602 0.19557056
N -0.34599665 -1.0560853 0.50857466
H -1.7337241 0.1369392 -0.5636818
H 0.07387653 0.21717358 -2.0972288
H 0.73039466 1.5140343 -1.0879853
H 1.5756363 -1.992481 0.67112374
H -0.6356327 -1.2621762 1.4540623
