11

C 1.2804216 -1.0280138 -0.53541374
C -0.29394197 0.44405892 -1.0508819
N -0.8099897 -0.4249568 -0.15566397
C 0.18064034 -1.3567784 0.17520206
C -0.8645373 1.2974191 0.49992773
O 1.0375344 0.11393502 -1.229046
H 0.0064015663 -2.1834564 0.84828824
H -1.7730043 1.7574978 0.13017678
H 2.2405655 -1.4956797 -0.6809689
H -0.0121793635 1.9784833 0.487289
H -0.9919105 0.89749044 1.5110905
