11

C -0.53292902 -0.25136013 -1.01923069
C 0.61131382 -1.11757083 -1.19090130
N 1.18455434 -0.67962040 0.11858652
C 0.18479396 0.12328402 0.27120525
C -0.13976582 1.01628163 1.41524856
O -0.65272107 -1.68542480 -0.95460028
H -1.07500358 0.69119380 1.88292595
H 1.20253148 -1.42937851 -2.04416653
H -1.16681020 0.30135432 -1.70231429
H 0.66442880 0.98604514 2.15323503
H -0.28039253 2.04519580 1.07001152
