11

C -0.53137374 -1.0782019 -1.4127309
C -0.014920029 -0.25184327 -0.28683254
N 1.1581106 -0.2624846 0.25009406
C 1.0892364 0.6920888 1.2547624
C -0.14261556 1.234209 1.2664382
O -0.8702144 0.6385856 0.27706152
H -1.426102 -1.6319606 -1.11164
H 0.2434408 -1.7851394 -1.7122056
H -0.7965665 -0.45473874 -2.271963
H 1.9351821 0.91297245 1.8919582
H -0.6441775 1.9865127 1.8550574
