11

C -0.2578841 -1.3721027 0.5073295
C -0.37855017 1.4053978 -0.09751548
N 1.6256789 -0.18494435 -0.21813838
C 0.742535 -1.2090265 -0.46831062
C 0.43657172 0.22345124 0.32247207
O 0.022602756 -0.4270878 1.5098224
H -1.4177278 1.3214462 0.22293891
H 0.66569763 -1.6899098 -1.443944
H -1.2117543 -1.8804858 0.47144032
H 0.07402708 2.2855358 0.37355265
H -0.30119693 1.5277258 -1.1796473
