10

N -0.39615044 1.58411724 -0.77563381
C -0.09379658 0.39101935 -0.14184372
C 0.87522799 -1.52202985 0.00441967
O 0.64487296 -0.48900655 -0.85699919
C -0.28733690 -0.12457145 1.09567593
N 0.35730611 -1.35966604 1.16609678
H -1.11027504 2.11306767 -0.29824608
H -0.62184008 1.47080609 -1.75583645
H 1.45734481 -2.34962234 -0.37597678
H -0.82535279 0.28588593 1.93834356
