9

N -0.42196754 0.21546416 -0.2938889
C 0.5126208 -0.049209215 0.66828346
N 1.2704314 1.04624 0.9273581
C -1.2499483 -0.774604 -0.8023037
O -2.0894094 -0.57328165 -1.6434629
H 1.8650434 0.8150638 1.7322844
H -1.0427097 -1.7575581 -0.3436489
H 1.7210125 -0.08636242 0.39525372
H -0.5650732 1.1642476 -0.63987535
