11

C -0.83267225 0.70556731 0.97816212
C -0.10294722 0.28317817 -0.29942678
C 1.21512942 -0.43680964 -0.02075754
O -0.32693903 0.66003469 2.06376789
C -1.02799780 -0.51514861 -1.11605920
N -1.77042315 -1.14646058 -1.73651961
H -1.86794995 1.07605931 0.82448776
H 1.03992336 -1.37121126 0.52081012
H 0.08593292 1.21320272 -0.85563450
H 1.73284037 -0.66525638 -0.95644502
H 1.85510348 0.19684418 0.59761460
