11

O 0.18766041 -1.9080803 1.1299593
C 0.026877025 -0.76414204 0.4146124
C -0.8773366 -0.3668503 -0.53586346
C -0.50197726 0.9650212 -0.9072254
C 0.5975706 1.3142987 -0.1766365
N 0.9161399 0.24153453 0.63569385
H -0.50473917 -2.5223925 0.85981035
H -1.7030728 -0.9485987 -0.92212766
H -1.003602 1.5825235 -1.6385688
H 1.1855292 2.2184286 -0.15330763
H 1.6769508 0.18825749 1.2936535
