11

O 1.50930599 1.48821900 -0.22470349
C -0.44702130 -1.17463231 0.43493776
C -0.98881843 -0.76507884 -0.79952130
C -0.51880935 0.49320843 -1.17250151
C 0.25964406 0.93420385 0.03331913
N 0.36790373 -0.25400194 0.91929558
H -0.61248519 -2.10206050 0.97375675
H -1.62806804 -1.40757505 -1.39526610
H -0.36927859 1.65189197 0.58503026
H 1.62130849 1.41346895 -1.18223259
H 0.80631874 -0.27764338 1.82788546
