11

N -2.0004296 -0.5256503 -1.9129004
C -1.5784911 0.025491886 -0.9902733
C -0.9990283 0.6954941 0.19474897
O -0.31193793 -0.20495154 1.0284952
C 0.80524445 -0.82194126 0.43579516
C 1.8541404 0.15838137 0.08123403
N 2.6518354 0.9464979 -0.19718505
H -1.8032075 1.1195712 0.7989068
H -0.34531286 1.5096484 -0.14659737
H 1.1974047 -1.5207402 1.1762984
H 0.5297822 -1.3818018 -0.46852213
