11

N -0.15184584 -1.4717275 -1.2496634
C -0.83996725 0.84802055 -0.5038833
C -0.06842462 -0.2553738 -1.2068633
O -0.67606926 0.50692695 0.8832782
C 0.34516093 -0.460549 1.1564492
C 1.0761926 -0.56104714 -0.18345731
N 1.7472777 0.22464801 -0.829036
H -1.8993161 0.7884473 -0.75785667
H 1.0208259 -0.06623221 1.9159026
H -0.11081198 -1.4011174 1.472259
H -0.44302252 1.8480042 -0.69712913
