10

O 2.01387380 0.88689754 -0.15701127
C -0.89021515 -0.63821238 0.87463203
N -0.08216134 0.25597144 -0.94633678
C -1.20745050 -0.37509975 -0.41976381
C 0.81674050 0.32198893 0.06217098
N 0.38886310 -0.19677422 1.17558580
H -2.08733148 -0.56371889 -1.01482723
H 0.05562619 0.60191817 -1.88165461
H 2.49184724 0.82907519 0.68256385
H -1.49979249 -1.12204596 1.62464117
