10

O -1.7658087 -1.1074663 1.2135676
C -0.876188 -0.54898036 0.6028936
N -0.8651069 -0.13843209 -0.72151047
C 0.34431753 0.46539226 -1.052781
C 1.1136551 0.4481337 0.050919626
N 0.37455422 -0.16719092 1.0585938
H -1.6513281 -0.28451377 -1.3297484
H 0.54412293 0.85194486 -2.0387516
H 2.1137521 0.8167448 0.21200356
H 0.6680297 -0.33563212 2.0048134
