10

O 0.5059147 -1.3482705 -0.59169406
C 1.3758223 -0.8676384 0.26512015
C -0.7014912 -0.5662372 -0.8119362
C 0.80357826 0.43223763 0.78086215
O -1.3306118 1.5339059 0.24026723
C -0.54223007 0.6347796 0.10106973
H 0.71128327 0.39758638 1.873198
H 1.4971018 1.2556856 0.5704534
H -0.75158226 -0.29013005 -1.8690488
H -1.567785 -1.1819191 -0.5582915
