10

O 0.21952028 -0.49503667 -1.45966926
C -0.85970476 0.24322186 -0.82079576
C -0.41905144 0.37582864 0.62475790
C 0.93507150 -0.31489615 0.68468593
O -1.03297225 0.91189051 1.51081022
C 1.23496209 -0.83580231 -0.70162325
H -1.78616365 -0.32506005 -0.93302051
H -0.96614736 1.21010598 -1.32083214
H 0.94451125 -1.13898342 1.40836247
H 1.72997441 0.36873165 1.00732457
