10

O 2.1011186 0.07404373 -0.46390593
C 0.91862494 0.018200913 -0.2790858
C -0.11133063 1.1112052 -0.06886474
C -0.031550195 -1.139736 0.052851785
O -1.2747756 0.6047878 -0.6789224
C -1.2071676 -0.21746986 0.46919754
H -0.3446402 -1.7155982 -0.8213893
H -0.42138803 0.872998 1.096314
H 0.00492177 2.1914172 -0.13116811
H 0.36618668 -1.7998488 0.82497287
