10

O 1.03174440 -0.77451439 -0.19716976
C 0.83008856 0.54471980 -0.28390574
N 1.52807273 1.56048626 -0.47821327
C -0.01098889 -1.56502909 0.21618865
C -0.00741272 1.69929448 -0.35062577
N -1.02510983 -1.11320621 0.79722501
H -0.53776098 1.96524698 -1.26513052
H -0.38703142 2.15298092 0.56294385
H 0.23859903 -2.59914175 -0.03360346
H -1.66020079 -1.87083696 1.03229081
