10

O -1.0262653 0.6546534 -0.8621154
C -1.0012499 0.84585625 0.43934998
N -0.13324265 0.28293788 1.2019385
C 0.9204818 -0.7574351 -0.23196562
C 0.0751796 -0.25393584 -1.2515804
N 0.48440856 -0.7252743 -2.29392
H 0.77384686 -1.7703335 0.12786521
H -0.2164932 0.5171965 2.1866267
H -1.781585 1.5266188 0.7874505
H 1.904919 -0.32028398 -0.10364958
