10

O 1.2597756 -0.15661958 0.30278805
C 0.5174368 -0.8154225 1.2504078
N 0.9077675 1.2952558 -1.5802158
C -0.55090576 0.80005205 -1.4377116
C 0.6112897 0.50286543 -0.6631895
N -0.7005585 -0.5930276 1.4433233
H -1.0462748 -1.173744 2.2021708
H -1.2820302 1.519007 -1.0728664
H 1.1852742 -1.5037833 1.7740793
H -0.9017749 0.12541668 -2.2187858
