10

O -1.7410923 -0.38880363 0.96638143
C 0.8248657 -0.23484896 -1.2667785
C -0.6521924 -0.21314189 0.23185313
N 1.4316097 0.5156525 -0.4208379
C 0.5060703 0.6194384 0.6941224
N -0.45715913 -0.720441 -0.93458027
H 0.22246519 1.661738 0.8755809
H 1.2547143 -0.5098947 -2.2242138
H 0.95188046 0.23079094 1.6159604
H -2.3411617 -0.96048975 0.46251225
