10

O -1.21223613 1.55366364 0.48278008
C 0.93381853 0.31864779 0.38479029
C -0.53163304 0.47921954 0.11070323
N -1.02778501 -0.53133432 -0.51265169
C 0.09268745 -1.37459075 -0.66497707
N 1.22096696 -0.98137370 -0.19660551
H 1.53359117 1.10352881 -0.08847713
H -2.13128672 1.42657975 0.19995832
H -0.03505407 -2.32494504 -1.17253117
H 1.15693103 0.33060430 1.45701074
