10

O -2.0638251 0.12365679 0.52701485
C 1.1040075 0.73033094 -0.5913032
C -0.78145546 0.08915937 0.1369912
N 1.3267529 -0.58070356 -0.40308008
C 0.048435327 -1.0321649 0.15419193
N -0.13261347 1.1613635 -0.32416028
H 1.8895285 1.3944974 -0.9322596
H 1.161676 -0.8332545 0.7866238
H -2.3694992 1.0316827 0.41420624
H -0.18300712 -2.0845675 0.23177524
