10

O 0.2135174 2.2115054 0.39170468
C 0.119016066 0.8842557 0.16257347
C -1.0022963 0.19415754 -0.2137318
N -0.5702733 -1.1189811 -0.3115011
C 0.7453665 -1.1416775 0.0015881843
N 1.1951151 0.058401186 0.2943553
H 1.1279 2.3787155 0.6525421
H -2.018798 0.4926875 -0.41146722
H -1.1397781 -1.908204 -0.5685278
H 1.3302308 -2.0508602 0.002464284
