11

N 0.16036335 0.06733169 0.06246068
C 1.4726174 0.59280896 0.3822612
C -0.38211212 -0.25731453 -1.1215274
N -1.6121681 -0.7044903 -0.961853
C -1.770483 -0.6258326 0.38215566
N -0.7329978 -0.1661799 1.0497612
H 1.3717003 1.5792437 0.83933765
H -2.6830156 -0.91825676 0.88619965
H 2.0557182 0.67106014 -0.537176
H 0.14688161 -0.15595803 -2.0606992
H 1.9734957 -0.08241235 1.0790796
