11

N -0.97886944 -1.706676 0.59639275
C -0.34753713 -0.5386474 0.15587103
C 0.966402 -0.16138685 0.26742452
N 1.0404255 1.0522876 -0.40230823
C -0.1944927 1.3253605 -0.876426
N -1.0595043 0.393975 -0.5546882
H -1.9836597 -1.6030715 0.52069545
H -0.7281584 -1.9725727 1.5403303
H 1.8311918 -0.6197612 0.72133714
H 1.8672361 1.6146681 -0.5180866
H -0.41303366 2.2158246 -1.4505422
