11

N -0.59794118 -1.10507116 0.29695812
C -1.70519903 -0.80229613 -0.34775937
C 1.50315664 0.06007370 0.63486959
N 0.16620824 -0.01127679 0.07999347
C -0.51393915 0.87194208 -0.66755354
N -1.71145070 0.40575068 -0.96273394
H -2.54685913 -1.48277444 -0.37683746
H 1.45037771 0.02877731 1.72500332
H 2.09108089 -0.78630856 0.27384199
H 1.96898393 0.99417320 0.31556157
H -0.10441815 1.82701026 -0.97134378
