11

N -0.6565491 0.28611878 -0.56592256
C 1.2125001 0.68864447 0.15305777
C -0.7899103 0.7009178 0.8049221
N 0.5500917 0.7409365 -1.0127012
C -0.57852155 -1.1320875 -0.6373877
N 0.3475185 0.9821981 1.2930087
H -0.083693534 -1.4955558 -1.527447
H 0.9535162 -0.74673384 0.24428563
H -1.4721524 -1.6591902 -0.30332485
H 2.2579567 0.9657082 0.23057975
H -1.7407568 0.6690435 1.3209292
