11

N 0.6883874 -0.8628153 -1.428091
C 0.81005216 0.3291346 -0.80951643
O -1.3519336 -0.5047644 0.8564362
C -0.38624334 0.48338518 1.3000637
C -0.29676652 0.96221405 -0.1053356
O 1.8059787 1.0450276 -0.78215164
H -2.179156 -0.032279257 0.6779862
H -0.81244457 1.1750834 2.032065
H 1.4496382 -1.1824131 -2.0103965
H 0.4636159 -0.0644728 1.7149823
H -0.19112827 -1.3481 -1.4460427
