10

O -0.9096246 2.0266426 -0.5586348
C 0.7876969 -0.8128944 0.5574615
N 0.7181701 0.59323424 0.609415
C -0.31553453 0.9546189 -0.17660825
C -0.21277072 -1.2301662 -0.26318306
N -0.89259833 -0.11205789 -0.71358263
H 1.539319 -1.3584527 1.1093713
H -1.5453509 0.957072 -1.1404251
H 1.3128136 1.2171394 1.127654
H -0.4821207 -2.235136 -0.5514679
