10

O -1.58057998 -0.44177764 -1.17753225
C 0.84962663 -0.59535025 -0.54266723
N -0.55365893 0.59351430 0.64615254
C 0.70411653 0.66408842 1.18578106
C -0.45878543 -0.21107026 -0.45744680
N 1.56390019 -0.03534536 0.50006757
H 0.91852779 1.24202646 2.07461023
H -1.39962955 1.03084580 0.97326874
H -1.36058545 -1.01482461 -1.92189188
H 1.31706836 -1.23210669 -1.28034191
