10

C 0.59669393 1.385559 -0.58244586
O -0.40511757 0.3856364 -0.3863258
C -0.030449271 -0.6236946 0.4310271
O 1.049422 -0.7108766 0.9653922
N -1.0612303 -1.5052639 0.57766885
H 0.8546933 1.8656187 0.36482623
H 0.15023935 2.1106112 -1.2651231
H 1.4979461 0.95175076 -1.0233232
H -1.8275076 -1.4686526 -0.07426745
H -0.82468987 -2.3906887 0.992571
