10

C 0.80670136 -0.3182461 -0.27091926
O -0.7112509 1.271311 0.9810702
C -0.4020136 -0.048008613 1.1969582
O 0.02929396 -1.3221475 -0.021902893
N 0.89481014 -0.062231757 -1.5996935
H 0.33403578 -0.1697841 1.9787554
H -1.3169051 -0.6299836 1.3549297
H -1.5962013 1.3253902 0.59952384
H 0.3907296 -0.6421673 -2.2641973
H 1.5708 0.5958676 -1.9545249
