12

O 0.95613765 -0.58390446 2.02237597
C -0.04879559 1.34794508 -1.43304716
C -0.33411915 -0.48757577 -0.00998042
C -0.00220636 -1.24289303 1.25260446
N 0.25741650 0.60632424 -0.23152253
H -0.79474058 0.85665695 -2.07657098
H -0.41896296 2.33988209 -1.15357933
H 0.87380973 1.49634024 -2.00392682
H 1.17945471 0.21974602 1.52543966
H -1.08260718 -0.92067435 -0.68718023
H -0.93279994 -1.38313204 1.82482553
H 0.34741310 -2.24871497 0.97056179
