12

O 0.76229584 1.6610693 0.01943616
C -0.16997142 -0.4945931 -0.50851834
C 0.9990514 0.4798293 -0.69863904
C -0.6052328 -0.68789023 0.96510834
N -1.441176 0.018349733 -0.39488983
H 1.1066991 0.6656143 -1.7793114
H -1.6397375 -0.20440964 1.0496157
H -0.7562436 -1.7404528 1.1859685
H -0.039193895 -1.451001 -1.0384159
H 0.039990902 -0.0964252 1.6097397
H -0.19532098 1.8096313 -0.06688899
H 1.938839 0.040278073 -0.34320495
