10

N 0.18629877 -0.9211699 -0.3480208
C -0.02751981 0.027263956 0.60084367
N 0.31129086 1.2234465 0.13555264
O 0.45138597 -0.70249856 -2.6631598
C 0.35166058 -0.23207779 -1.5695823
O 0.36170948 1.098711 -1.2865882
N -0.6411063 0.2363919 1.7465127
H -0.49522638 -0.38316244 2.5337987
H -0.114343606 -1.8808743 -0.33021793
H -0.38414952 1.5339696 1.1808614
