17

C -0.71404797 -1.3670046 -1.7230054
N -0.2427375 1.2017918 0.7312541
C -0.06469844 0.15045026 0.03920263
O -0.9594852 -0.23711261 -0.90444857
N 1.06472 -0.62944216 0.18094026
C -1.4245429 1.982548 0.45092422
C 1.973105 -0.34662575 1.2778989
H 0.9642342 -1.6095743 -0.030214788
H 2.2530706 0.70667 1.2410036
H -1.4483128 2.8208525 1.1528769
H 2.8698442 -0.960378 1.1543127
H -2.3504233 1.405496 0.57443833
H -0.70604473 -2.2963855 -1.1385504
H -1.4240994 2.392682 -0.5687257
H 1.5291584 -0.54214185 2.2612314
H -1.5478936 -1.3994285 -2.4246423
H 0.22815382 -1.2723972 -2.2744966
