17

C 0.55424875 1.5210375 -1.39723
N 0.4182199 0.15419357 -0.9638692
C 0.44238457 -1.8436805 -1.5179136
O -0.24676174 -1.4706479 0.30675462
N -0.4916345 0.638457 1.1647433
C -0.100811645 -0.21299899 0.17154825
C -0.88026154 0.13077047 2.466649
H 0.77133363 1.5333785 -2.4728034
H -1.5182409 -0.74334246 2.317152
H -1.4474511 0.8985977 2.9961677
H -0.15293343 -2.735318 -1.335186
H -0.023838457 -0.17389746 3.082426
H 1.4971191 -1.9710779 -1.3052598
H -0.08737687 1.5590473 1.1313456
H 1.3844202 2.0447333 -0.89735085
H 0.24967605 -1.4297545 -2.5037963
H -0.36809203 2.1005027 -1.2433774
