10

O -1.4353701 -0.12747985 -1.4410044
C -0.8505372 0.4277597 -0.30437276
C 0.5934082 -0.030802133 -0.17181723
O 1.3115869 -0.27465373 -1.103667
C 0.881734 -0.7793028 1.4142939
O 1.1896186 0.42658362 1.1322824
H -0.80935603 1.5312074 -0.34731126
H -0.74336225 -0.17623828 -2.1163752
H -1.4394077 0.13540344 0.5673446
H 1.3016857 -1.1324775 2.3706272
