13

C -0.12036534 -0.18637666 0.21170786
N -0.6355137 1.1097393 0.12535506
C -2.0872433 1.4034882 -0.8866923
O -0.7833609 -1.1871139 0.12317608
C 1.831527 -1.4205333 0.5381336
O 1.2067046 -0.1419352 0.39689207
H 1.431459 -1.9452137 1.4080752
H 0.043003224 1.862421 0.13266274
H 2.8925984 -1.2118826 0.667046
H -1.6205456 1.9944668 -1.6847664
H -1.5911708 1.3718021 0.55393595
H -2.2256012 0.37507418 -1.2303044
H 1.6585089 -2.0239365 -0.3552215
