11

C -0.5190347 1.1361579 0.4771724
C -0.12736578 -0.23195815 -0.030801
C 1.2594243 -0.7132012 0.028484102
O 0.28041473 -1.180451 0.94030595
C -0.9908426 -0.77613485 -1.0773178
N -1.6842922 -1.1719304 -1.9126079
H -1.5236171 1.1116118 0.9067793
H 0.18556277 1.4532447 1.250626
H -0.50806224 1.8662254 -0.33793277
H 1.6132678 -1.444058 -0.69418854
H 2.014545 -0.049506236 0.44948038
