11

C 1.4821144 -0.978135 0.5729007
C -1.392538 0.0649223 -0.8039555
C -0.2520395 0.13894701 0.14797017
O 0.164111 -1.0388318 0.6877245
C 0.340368 1.3436333 0.5788674
N 0.7411494 2.3873968 0.9099307
H 1.9230757 -0.6806191 -0.36755934
H -1.91168 1.0260493 -0.8520118
H 2.0604095 -1.349044 1.4108568
H -2.0895925 -0.7122706 -0.4670419
H -1.0653783 -0.20204835 -1.8176819
