12

C 0.2755441 0.40122986 0.6087322
N 0.7593305 -0.324559 1.5467391
C -0.47511798 -1.3214859 -0.9909587
N -0.34105852 0.049765777 -0.5453314
C 0.3869247 1.8905137 0.79964125
O -0.0072242077 2.6855152 -0.017039835
H 0.8669296 2.1647847 1.7557696
H -0.5666312 0.8163909 -1.1613455
H -0.9978261 -1.3243035 -1.9506048
H -1.0642503 -1.9108524 -0.27765444
H 0.6617437 -1.3227814 1.3553374
H 0.5016356 -1.8042184 -1.1232848
