12

C -0.72405476 1.78350220 0.81119892
N -0.39682130 -0.21776773 -0.45966725
C 0.07935635 0.53495531 0.56123992
N 1.08171166 0.34570764 1.33593009
C 0.26596014 -1.40947592 -0.94694453
O -1.67757801 2.09243828 0.14060168
H -0.31742171 -1.81541198 -1.77702518
H -1.16540153 0.19007693 -0.97056611
H -0.34242994 2.37483520 1.66237369
H 1.28070202 -1.19370389 -1.30517597
H 1.59034754 -0.51065784 1.11113360
H 0.32562941 -2.17449799 -0.16309917
