11

C -1.8345162 0.52193 -0.55209213
N 0.48060367 -0.07632017 -0.31098637
C -0.62913847 0.37155452 0.33861983
O -0.67371 0.7611821 1.4972075
C 1.7959783 -0.04496815 0.29565445
O -2.5420315 -0.5799336 -0.43663788
H 0.37772387 -0.39298546 -1.2628115
H 1.7002904 0.44234347 1.2675054
H 2.4974706 0.5187491 -0.32693818
H 2.181972 -1.0586997 0.44199702
H -3.3546429 -0.46285212 -0.9515181
