11

C -0.1393964 -0.38910788 0.8354816
N 0.074813664 0.22874515 -0.3489856
C 0.22559659 1.6683941 -0.4454587
O -0.2137296 0.15141758 1.9230759
C -0.28861752 -1.906777 0.70967203
O -0.1784887 -2.3851597 -0.49787676
H -0.37997898 -3.120345 0.3740509
H 0.18427497 2.0679936 0.5691532
H 1.1877359 1.9269623 -0.90087503
H 0.108776614 -0.34861678 -1.1775746
H -0.58098656 2.1064937 -1.040663
