11

C -1.46837367 0.00644290 -1.33660146
N 0.17356107 0.40596488 0.37227179
C -0.47221088 -0.54883205 -0.35260680
O -0.85935841 0.09252620 -2.49836781
C 0.97192600 0.08285993 1.53735680
O -0.39723644 -1.75678609 -0.17555446
H 0.04469451 1.37047100 0.10778439
H -1.51323959 0.38217574 -3.15234758
H 0.61688251 0.63074898 2.41556627
H 0.87750818 -0.98970503 1.71571808
H 2.02584710 0.32413371 1.36678063
