11

O 1.6805778 0.6643975 -0.5151258
C 0.7612362 -0.049481817 0.2504127
C -0.3373998 0.6909861 1.0446429
O -1.3517641 -0.14531663 0.41394058
C -0.42327607 -0.68446416 -0.44030023
N -0.5606181 -1.3776642 -1.4765009
H 1.2644359 0.9030495 -1.3526348
H 1.3177651 -0.7587205 0.87005275
H -0.34941968 0.57365 2.1297972
H -0.45854598 1.73818 0.75646055
H -1.5429912 -1.5546157 -1.6807451
