11

O -0.87184083 -0.95890063 -0.059589617
C 0.57180375 0.35215366 0.745043
C -0.29945844 0.2695215 -0.42982575
O -0.5459081 1.2442703 0.54641026
C -0.048484184 -0.9817743 1.1412206
N -0.38123214 0.6169647 -1.7696795
H 0.08261651 -0.059310753 -2.3637235
H -0.6661324 -0.9926298 2.0434902
H 0.6487177 -1.8233929 1.1145514
H 1.5384918 0.7833153 0.9661163
H -0.028573677 1.5497828 -1.9340134
