11

O -0.02049756 1.40247359 -0.42123169
C 0.77079145 0.50887286 0.39113907
C -0.16682928 0.03947542 1.49640421
O -1.12913567 -0.40192456 0.49664574
C -0.26550297 0.02658636 -0.52523207
N -0.45589280 -0.53463255 -1.77878575
H 0.14305583 -0.10779902 -2.47203671
H 0.21050979 -0.81113806 2.07015983
H -0.59491653 0.80991742 2.14359663
H 1.84714489 0.60850142 0.36290827
H -0.33872707 -1.54033278 -1.76356768
