10

N -0.34083920 0.47351441 -2.74149226
C 0.15393224 -0.08151020 1.98671887
O 1.15306913 -0.72065424 2.22204296
C 0.43283177 -0.16534053 -0.41558731
C 0.01040015 0.10565363 -1.62480846
N -0.28438411 0.22837581 0.72744166
H -0.84386440 -0.21903171 -3.29307290
H -0.51075193 0.31767352 2.77463143
H -1.11820499 0.78263975 0.60263886
H 1.34781130 -0.72132031 -0.23851258
