11

N 1.0419213 -1.5075271 -0.16210312
C 0.46263185 -1.4319685 1.0252081
C 0.47482207 -0.549076 -0.9002982
N -0.62894666 -0.6912851 1.1703538
C -0.29845068 0.5093597 -0.24806282
N -1.3351908 -0.34263286 -0.08431934
N -0.35702258 1.8315793 -0.344738
H 0.54580706 -0.5283576 -1.9803895
H 0.85433584 -1.9495897 1.8950282
H 0.47934088 2.3877494 -0.25024155
H -1.239248 2.2717488 -0.12043739
