9

O -1.33103567 0.19459196 -1.77110360
C 0.42479763 -0.90563165 -0.34401451
N 0.58961034 -0.11934118 0.74502575
N -0.43659405 0.88747215 0.32085779
N 1.26285319 -0.08128597 1.78057342
C -0.54391225 0.07444983 -0.72012875
H 0.90761672 -1.82243181 -0.62372174
H -1.85524896 1.00209445 -1.66234988
H 0.98191290 0.77008226 2.27486116
