9

O 0.83836764 -1.722946 -0.6251672
C 0.27447936 -0.5731449 -0.21597673
N -0.6592723 0.0698136 -0.8972978
N -0.9072937 1.1244648 -0.12401053
N -0.21503256 1.2112635 0.9906503
C 0.5608795 0.13148257 0.9679412
H 0.4408544 -1.9624065 -1.4726173
H -1.592094 1.8149735 -0.3815702
H 1.2591115 -0.09350053 1.7580479
