9

O 0.055769924 2.0846336 0.79131275
C 0.419611 0.19815107 -0.56997186
N 0.3793428 -2.2448587 -0.6983611
N 0.23468617 -1.0562828 -0.652313
N -0.94456345 -0.026424946 1.3329262
C -0.24537256 0.73597425 0.64735323
H 0.96571195 0.66545904 -1.38898
H -0.39180142 2.3164659 1.6166677
H -0.47338447 -2.6731172 -1.0786339
