9

O -1.1107801 -1.3899544 1.0340694
C -0.28480494 -0.555033 0.3793791
N 1.0344319 -0.80519414 0.24028973
N 1.5788431 0.1657953 -0.43318328
N 0.6132063 1.0301547 -0.7212387
C -0.5929349 0.6336069 -0.23692858
H -1.5049149 1.1915809 -0.36460373
H 0.8391023 1.8588061 -1.2470233
H -0.572149 -2.1297624 1.3492396
