9

O -1.39569049 0.03528063 1.51192206
C -0.39619403 -0.45977588 -0.66392852
N 1.52563358 0.57846151 -0.21378960
N 0.83693705 -0.11063509 -1.11567124
N 0.76783122 0.69695692 0.83714539
C -0.40841033 0.07841695 0.60012974
H 1.26057556 -0.30968389 -2.00732789
H -1.10996764 -1.02376374 -1.23993927
H -1.08071486 0.51474270 2.29145914
