9

O 1.6814352 0.9286424 0.60520715
C 0.56403893 0.30803755 0.1950421
N 0.42841327 -0.24536918 -0.9994079
N -0.81077915 -0.72440386 -0.95737845
N -1.4795438 -0.52922547 0.15656215
C -0.62354976 0.135878 0.9270124
H 2.3250568 0.89173967 -0.114837445
H -1.210271 -1.2161896 -1.7395734
H -0.87480044 0.4508906 1.9273732
