11

C -0.15092647 0.12282954 -0.5691
N -0.36687553 -2.23749 -0.7719582
C -0.44518045 -1.0714419 -1.3445096
C 0.45649254 1.3464714 1.3052707
N -0.29787993 -3.2444909 -0.26518562
N 0.19961977 0.08210276 0.64929473
H -0.25574547 1.0605356 -1.1280835
H 0.30277115 2.2240999 0.65869445
H -0.72994924 -1.0673672 -2.38536
H -0.20083307 1.4319788 2.176902
H 1.4885067 1.3527721 1.674035
