11

C 0.18596759 0.54674096 -1.24158149
N 0.01581478 -0.00844569 -0.00954437
C -0.67844992 -1.15653043 -0.25912218
N -0.90378864 -1.29107965 -1.53609678
C 0.42158184 0.52309805 1.28028757
N -0.35286083 -0.20356993 -2.16341875
H -0.33297917 1.21055623 1.67306129
H 0.70385664 1.48029799 -1.41074179
H 0.55556132 -0.30499498 1.97918900
H -0.98656601 -1.84706048 0.51283107
H 1.37186249 1.05098786 1.17513652
