11

C -1.1086016 -0.6628425 0.44344518
N -2.1789637 -0.25276053 -0.17760466
C -0.4926207 0.8371342 -0.9651764
N -0.0026074818 -0.009721464 -0.017641604
C 1.3682176 -0.14673145 0.44378984
N -1.7862108 0.7053213 -1.0762459
H 2.0522523 0.0008837067 -0.39469928
H 1.5104518 -1.1543365 0.8395843
H 0.12422766 1.5146863 -1.5385648
H 1.5908705 0.5847631 1.2258216
H -1.0770161 -1.4163961 1.2172917
