11

C -0.9378257 1.302422 0.29393408
N -0.087356515 0.16024531 0.027375158
C -0.3791072 -1.1517313 0.010705068
N 0.69575554 -1.8582568 -0.27500555
C 1.6402384 -0.8954757 -0.42378068
N 1.2187622 0.34002042 -0.2501444
H -0.5766918 1.8277767 1.1803697
H -0.91825885 1.9796385 -0.56290275
H -1.9577541 0.9517532 0.46357003
H -1.3689526 -1.5418111 0.20640586
H 2.6711907 -1.1145813 -0.67052644
