9

O 1.5838763 1.4376493 -0.5621446
C -0.96050054 -1.5058059 0.97800726
N -0.42667428 0.3262359 -0.5821588
C 0.8334577 0.5991072 -0.1257286
C -1.2153215 -0.6786722 -0.0187594
O 1.1292417 -0.22218344 0.90446603
H -2.2082107 -0.84512997 -0.4416635
H -0.7609856 0.88828653 -1.3480037
H 2.0251174 0.00051259634 1.1959852
