11

N -2.1054447 0.31999832 -0.5434274
C 1.5339463 -0.90939647 0.046316195
C 1.5373348 0.5139502 -0.16252369
C -0.9633875 0.118428096 -0.058485113
C 0.17424485 1.0872047 -0.08013568
N 0.5678408 -1.6041458 0.5735074
O -0.68923676 -1.0757279 0.6120809
H 0.19685079 1.6512557 0.8727996
H -0.0053097187 1.8517413 -0.8415156
H -2.712457 -0.4909798 -0.4089229
H 2.4656184 -1.4623282 -0.00969372
