11

N -1.55824023 -1.54891871 0.05786221
C 0.47995125 1.41980503 -0.63855888
C -0.77497449 0.75564680 -0.21727753
C -0.67020306 -0.67242494 0.21031838
C 1.63847419 0.62895612 -0.31930361
N 1.67975815 -0.36600392 0.51874005
O 0.51861839 -0.98907582 0.87157607
H 2.62507336 0.98718033 -0.59349515
H -1.57413006 0.86285795 -0.95640646
H -1.25400460 -2.45153825 0.42794267
H -1.11032319 1.37351542 0.63860203
