11

C -0.9315339 0.4050074 0.46155515
N 0.010830912 1.3248179 0.09936325
C 0.8985142 0.36556253 -0.55315727
O 0.24849108 -1.7751315 0.5021491
C -0.18488266 -0.7091155 -0.29615843
O -1.9223326 0.44136268 1.1489463
H 0.15263179 2.2811081 0.38996497
H 1.8199692 0.1612306 -0.0022901169
H 1.1082656 0.5924927 -1.6008444
H -0.70392597 -1.040417 -1.2049257
H -0.4960276 -2.0469182 1.0553969
