11

C -0.77197963 0.877548 1.5456371
N 0.58270925 0.51913124 1.1771035
C 0.83443433 -0.052710395 0.09719735
O -0.1453661 -0.38656583 -0.8430637
C 0.25309232 -1.0270903 -1.9654064
O 1.3784081 -1.3358849 -2.2374804
H -0.79067063 1.9510715 1.7538595
H -1.0156564 0.36165985 2.4789886
H -1.5365949 0.644652 0.795208
H 1.8385308 -0.33595455 -0.20592646
H -0.62690735 -1.2158564 -2.5961175
