12

O -0.46219964 -1.01388044 1.52175761
C 0.97335097 0.93220839 -0.07244640
C 0.00656774 -0.03377635 -0.62886234
C -0.39434952 -1.27894883 0.14118787
N -0.46674917 1.20439039 -0.00644553
H -0.05656330 -0.11000313 -1.71294098
H -0.75192757 1.89408396 -0.69441185
H 1.57457448 1.51774960 -0.76660525
H 1.43601632 0.72732193 0.88708518
H -1.35976936 -1.64083181 -0.24897048
H -0.84475524 -0.12540099 1.58961987
H 0.34580450 -2.07291268 -0.00896773
