9

O 1.0051577 -0.9457489 -1.4991444
C 0.30984774 -0.34791583 -0.51917297
C -0.9419681 -0.62073374 -0.079479426
O -1.1976445 0.26718187 0.9383418
C -0.09010489 1.0045956 1.037181
N 0.8456622 0.6938153 0.2017141
H 1.864174 -0.50563633 -1.5418259
H -1.7179364 -1.3242378 -0.32908908
H -0.07718775 1.7786797 1.7914748
