9

O -0.34498608 -1.0702734 -1.0323831
C 0.47885552 0.07790628 -0.7683537
C 0.39642602 0.780448 0.45603588
O 0.70152324 0.8994841 1.7225379
C -1.0600759 -1.4853076 -0.023045262
N -0.18889703 1.3773715 -0.49939236
H 1.324741 0.057486765 -1.448814
H -1.6030884 -2.3467171 -0.47671416
H 0.29550177 1.7096016 2.0701284
