11

O 0.7855644 0.62836915 0.9867392
C -0.5058394 0.31389505 0.5060575
N -0.6056029 -1.0307491 0.014093012
C 0.5428383 0.6865922 -0.44093645
C 0.53654975 -0.75684977 -0.91751385
O -1.5755675 0.8706377 1.1219876
H 0.79965425 1.6019914 -0.96071565
H -0.4214504 -1.7365848 0.7224222
H 1.451917 -1.3150536 -0.6948196
H 0.24556544 -0.8889357 -1.9625294
H -1.2536292 1.6266872 1.6252155
