11

O -2.0119581 0.98931175 1.3806729
C -1.080245 0.61290085 0.7268938
N -0.9759008 -0.54924554 -0.014051664
C 0.4074483 -0.80764145 -0.35748473
C 0.94098526 0.6300913 -0.32555014
O 0.08155404 1.3109889 0.5893884
H -1.607876 -1.2941687 0.23310336
H 0.90813255 -1.4434574 0.38328016
H 0.5095491 -1.264432 -1.3444077
H 0.86054885 1.1079698 -1.3069582
H 1.967762 0.707682 0.035113804
