12

N -1.58007765 -0.12641999 -0.12763316
C -0.67585847 0.81454772 0.39202528
N 1.83543672 0.75300698 0.57537887
C 0.56024451 0.31331436 0.20305537
O -1.39169658 -2.22934636 -1.13363419
C -0.92182276 -1.22193002 -0.63961064
N 0.41784114 -0.90868346 -0.45885578
H -0.99620704 1.74968272 0.82437847
H -2.58149657 -0.09093643 -0.06998298
H 1.78343740 1.53137809 1.21819369
H 2.40784474 1.01372420 -0.21984511
H 1.14235410 -1.59833764 -0.56346989
