12

N 0.102051415 -0.9000985 -0.6247029
C -0.3445145 0.9562823 0.4907039
N 1.7317809 -0.3458812 1.0715455
C -1.129488 -0.48732406 -1.1129887
O -1.8212554 -1.0355768 -1.9500103
C 0.55637306 -0.038901925 0.3771035
N -1.3733221 0.6799862 -0.42487943
H 1.8354948 0.23282549 1.8938097
H 0.4594548 -1.8236445 -0.80023533
H -2.2339816 1.1855596 -0.5301564
H -0.34404886 1.8364668 1.114647
H 2.5614562 -0.25969326 0.49516356
