11

N -2.0007923 -0.5218933 -1.9169177
C -1.5758547 0.024218263 -0.9925557
C -0.9986705 0.69595814 0.19201066
O -0.31504148 -0.20573175 1.0257881
C 0.8046477 -0.82089925 0.43763405
C 1.855026 0.15722379 0.08472223
N 2.6552157 0.9417654 -0.19531298
H -1.8036985 1.1190424 0.7955658
H -0.34402823 1.5104581 -0.14587174
H 1.1932868 -1.5192609 1.1808089
H 0.52990943 -1.3808811 -0.4658712
