11

N -1.1935542 -1.3495338 -0.15959613
C -2.3013744 -1.4824152 0.20610893
C 0.14651908 -1.0836787 -0.5879472
O 0.29030222 0.23114131 -1.0313154
C 0.031878352 1.2162321 -0.059134707
C 0.95952827 1.123984 1.0881406
N 1.691895 1.03791 1.9754037
H 0.82046396 -1.3024896 0.25070533
H 0.17054904 2.17734 -0.5574229
H -0.9992231 1.1539437 0.31338754
H 0.38301578 -1.722434 -1.4383297
