10

O -2.084084 0.6152199 -0.26662308
C 1.2504296 0.37513435 0.4543293
N 0.052879743 0.93930084 0.7449925
C -0.838292 0.15741734 -0.030846963
C 1.0663064 -0.6351946 -0.4919462
N -0.22805978 -0.77406085 -0.7972846
H 1.8187624 -1.2809298 -0.92813563
H -2.4900584 -0.006515339 -0.8867896
H 2.1456034 0.66780555 0.9849614
H -0.6934874 -0.05817749 1.2173427
