10

O -1.9642003 0.9938855 -0.18893965
C -0.8062594 0.34978935 0.041911
N -0.47763187 -0.30240497 1.1166115
C 0.8008064 -0.7680691 0.85605484
C 1.2188982 -0.38411266 -0.37953335
N 0.15839827 0.34791893 -0.90705454
H -2.4967809 0.86794746 0.6092699
H 1.3368275 -1.3552105 1.5897459
H 2.1324673 -0.54473805 -0.93035036
H 0.09747482 0.79499376 -1.8077153
