9

O 0.88317883 1.5438403 -0.2690987
C 0.34472165 0.32428113 0.051898006
N 0.8123698 -0.37066072 1.2797201
N -1.5668794 -0.8389253 -0.18289404
N -1.0738612 0.29901132 -0.21953624
C 1.1875095 -0.82350373 0.15563072
H 1.8178078 -1.60622 -0.2426325
H 0.16990091 2.1941898 -0.2159422
H -2.574748 -0.72201264 -0.3571452
