9

O 0.07508874 1.0306883 1.43863
C 0.20185244 0.32408926 0.31577256
N -1.0447813 0.42942697 -1.481063
N -0.17168221 -1.7710439 -0.38160846
N 0.47523224 -0.9726253 0.35175937
C -0.1421969 1.0722951 -0.93816525
H 0.2672597 2.0720613 -1.1052191
H -0.07596976 0.44242802 2.1935973
H 0.41519707 -2.6273193 -0.39370343
