9

O 0.07827326 0.72971748 1.64232987
C 0.19651069 0.13709732 0.41142742
N 1.37249192 -0.72963783 0.13752162
N -1.08696128 -0.32423596 -0.06455966
N -1.08706918 -0.64381819 -1.26338264
C 1.33176309 0.41462344 -0.40872083
H 1.94090686 1.03930570 -1.04688244
H -2.03681516 -0.98236050 -1.47123555
H -0.70910013 0.35930866 2.06350196
