10

O 0.6314597 -0.12394302 -1.1431458
C -0.62744427 0.57241386 0.6628399
C 0.5135494 -1.1746205 -0.19083528
O 0.023753159 2.0437548 -1.193314
C 0.015568169 0.9789692 -0.65204465
O -0.5451391 -0.83757186 0.6631516
H 0.27709913 -2.105608 -0.7062967
H 1.4670813 -1.2573891 0.3502353
H -0.080658175 1.0235802 1.5019007
H -1.6752695 0.8804145 0.70750874
