10

O -0.77640766 -1.5783153 0.011715229
C 1.1237051 -0.28632677 0.7004534
C 0.07190437 -0.5443054 -0.37453547
O 1.0624094 -0.84404254 1.7665346
C -1.1262804 1.8216971 -0.744488
C -0.6068219 0.74784243 -0.59981054
H 0.58647114 -0.8346267 -1.3021828
H 1.9128051 0.4477921 0.45730633
H -1.6060523 2.7670424 -0.8814337
H -0.64173275 -1.6967576 0.966441
