10

O -0.9502229 1.8544692 0.99872965
C -0.2950974 1.1060524 0.026527474
C -0.14065051 -0.3373564 0.4660942
O -0.56947094 -0.70349544 1.5387468
C 0.5369423 -1.2363167 -0.45863903
C 1.1006154 -1.9475789 -1.2472999
H -1.1460302 1.239062 1.7240721
H 0.70831424 1.5067313 -0.1832727
H -0.8450742 1.1110308 -0.92638594
H 1.600674 -2.5925984 -1.9385729
