11

O -1.2768283 -0.17784083 1.9339398
N -1.1689411 -0.7658831 0.6725484
C -0.23875116 -0.23109557 0.008733812
C 0.29609308 -0.46553794 -1.3774616
O 1.2583086 0.5869678 -1.1734453
C 0.79342186 0.85647595 0.16310105
H -2.0078235 -0.66892326 2.3298259
H -0.3939282 -0.24485411 -2.199501
H 0.7745904 -1.4363735 -1.548698
H 1.5656885 0.6742097 0.91950697
H 0.39816955 1.872855 0.27144974
