11

O -0.34909603 0.75461054 -1.4145821
N 0.8570769 -1.226837 0.73983437
C -0.9942833 -0.08527413 -0.45934412
C 0.25848356 -0.025005443 0.46990475
O 0.19301394 -1.6509955 1.7557191
C 0.8158481 0.9162185 -0.5846148
H -1.220655 -1.090313 -0.836497
H -1.8980447 0.3835846 -0.05697312
H 1.733759 0.56344724 -1.067886
H 0.9315648 1.9586582 -0.2657783
H -0.3276673 -0.49809405 1.7202175
