10

O 1.6590737 0.17466705 0.88403314
C 0.033130802 -0.8141288 -0.9337127
N -1.2294574 -0.740663 -0.68446654
C 0.48748305 0.13079628 0.1829452
C -0.9598725 0.1529634 0.4956373
N -0.26839 1.3594172 0.06357693
H 1.8330364 -0.70217186 1.2524508
H -1.556754 0.1382141 1.3989701
H -0.49935687 1.6368818 -0.89232326
H 0.50110686 -1.3359764 -1.7671107
