10

O 1.44030896 -1.08649562 0.55640466
C 0.47031160 -0.22792478 0.12277483
N -1.40007553 0.35739684 -0.66385057
C -0.37283433 -0.24618435 -1.15590252
C -0.74246242 0.40623418 0.68857287
N 0.51573663 1.13484475 0.60846816
H -0.22714456 -0.53776587 -2.19495663
H 1.08884019 -1.98700571 0.53659681
H -1.29258789 0.33187113 1.61826492
H 0.51990771 1.85502927 -0.11637275
