9

C -0.5542512 -0.58592314 -0.75111175
C 0.3252234 1.1443791 0.8387584
C 0.32347098 -0.19256133 0.16889681
C -0.8902917 -1.5770819 -1.5221
O -1.3432606 -2.354103 -2.2731314
H 1.116372 -0.8777718 0.47762808
H -0.49622473 1.7703277 0.48557916
H 0.24196865 1.0182718 1.9252503
H 1.2769935 1.6544627 0.65023047
