11

C 1.3796935 0.0063085714 0.02300195
N 0.23943576 -0.62561417 -0.6315016
C -0.9970869 -0.5010547 0.10840801
C -1.4269297 0.9027017 0.33754995
N -1.708031 2.0148535 0.4711479
H 1.2485746 1.0831652 0.20801468
H 2.2663925 -0.13783038 -0.60052115
H 1.5619154 -0.48848635 0.9836562
H 0.11724305 -0.24181354 -1.5618399
H -1.7981122 -1.0240763 -0.42246282
H -0.88309485 -0.988153 1.0845469
