15

N -0.47793028 -2.2390845 1.297315
C -0.3200444 -0.9251951 0.89701223
O -0.7995732 0.00024557798 1.5427104
N 0.41449407 -0.76015997 -0.2471667
C 0.93570566 0.5398287 -0.67345315
C -0.13336945 1.5828862 -1.0133603
O -0.6075433 2.301432 0.09125356
H -1.1919161 -2.3403485 2.0051315
H -0.47940686 -2.9575624 0.5903707
H 0.97486234 -1.5549814 -0.5200107
H 1.5304024 0.33978525 -1.5709908
H 1.6013306 0.9669419 0.08776205
H -0.9420746 1.0841322 -1.5728256
H 0.31665966 2.3231933 -1.6844602
H -0.8215968 1.6388868 0.77071136
