10

O 2.00751 1.1504068 0.42975402
C 0.9603468 0.601964 0.20513254
C 0.43365303 -0.84863305 0.23255672
C -0.9144713 -0.24387749 -0.2342928
N -0.2655117 1.0635632 -0.1957881
H 0.92263365 -1.5146976 -0.48065698
H 0.42633358 -1.3026115 1.2252259
H -1.236726 -0.5494643 -1.23433
H -1.7431102 -0.34996557 0.47169396
H -0.59065765 1.9933152 -0.41929513
