12

N -1.42194579 -0.18743486 -0.90646291
C -0.24136692 -0.36162326 -1.30944684
N -0.31922906 -1.12088378 -0.15686775
C 0.23002611 -0.41102688 1.00730045
C -0.66048311 0.02418815 2.10285408
C -0.16827273 0.97940826 1.35984747
N 0.66216075 -0.09533643 -2.26007482
H 0.44967596 0.59129844 -2.96648014
H -1.28791635 -0.29056362 2.92179938
H 1.23274206 -0.80199748 1.21319766
H -0.09927332 2.02977218 1.11634937
H 1.62388254 -0.35580073 -2.12201577
