10

N 0.91016215 -0.56215453 2.7179637
C 0.8978984 -0.3922314 1.5761441
O -1.2184886 -1.0971866 -1.4733897
C -1.2722797 0.023012469 -1.0215331
C 0.88395226 -0.13345504 0.12774299
N -0.28739303 0.61016893 -0.2818486
H -2.1279874 0.7023925 -1.1876801
H 0.86037564 -1.082503 -0.41353026
H 1.7998297 0.4012424 -0.14325443
H -0.44606945 1.530714 0.09938591
