9

O 1.3340596 1.6523088 -0.020289052
C 0.5927057 -0.6002604 -0.0033841468
N -0.87614703 1.0032991 -0.69318455
N -1.5249344 -1.2741221 0.22256397
N -0.30914217 -1.3893735 0.51393163
C 0.26078752 0.8404673 -0.21834776
H 1.5030438 -1.0314384 -0.41710034
H 1.0852995 2.5213594 -0.3637087
H -2.0656722 -1.7222404 0.97951895
