11

O -0.98518370 0.95745365 0.39079801
C -0.74771041 -0.41057284 0.94271682
N 0.76769901 0.02190113 -0.67973222
C -0.12673883 -1.12640910 -0.21267149
C -0.14023546 1.19440805 -0.57726588
O -0.06330211 2.13908440 -1.30774907
H -1.72286868 -0.81217150 1.22401952
H 0.52400955 -1.93511457 0.13039860
H 1.04975682 -0.08510237 -1.65656614
H -0.16582803 -0.19763475 1.86702458
H 1.61040218 0.25415744 -0.12097247
