12

N 0.95749784 -1.3218635 0.57318556
C -0.5736083 0.20922737 -0.8427201
C -0.048492305 0.98375094 0.96262985
O -1.0960855 1.1838241 -0.029807068
C 0.65148383 -0.020830033 0.03356573
N -1.0203995 -0.31086874 -1.8929596
H 0.104831055 -1.782698 0.8791219
H 1.3689532 -1.9062911 -0.14537404
H -0.4558208 0.5478565 1.8782895
H -1.9133312 0.10291821 -2.163467
H 1.5514268 0.39594325 -0.4265717
H 0.47354499 1.9190313 1.174107
