12

N -0.7458633 -1.0196095 -1.0307419
C -0.23572499 -0.6371361 0.2798558
C 0.5689952 0.6629693 0.085315205
O -0.17109126 1.5725555 -0.6752092
C 0.89188737 1.2578262 1.3943976
N 1.1570108 1.6836821 2.434253
H -0.0435572 -1.528802 -1.5590882
H -1.5598996 -1.6109008 -0.9532829
H -1.089729 -0.4131362 0.92988706
H 0.38506818 -1.3939797 0.7754244
H 1.5281976 0.42323568 -0.40240857
H -0.6852937 1.0032953 -1.2784017
