11

N 0.12430001 -1.379682 1.3063914
C -0.4334521 -0.22100803 1.418194
C -0.71576124 0.5780829 0.22313687
C -1.1471251 0.104628615 -1.0155013
C 0.16791394 -0.41809812 -0.75163853
N 1.1458163 0.51527625 -0.91956013
O 0.40393412 -1.5959128 -0.038289826
H 2.0762138 0.1603298 -0.705198
H 0.39856485 1.3558083 -0.082428314
H -0.6789297 0.12631147 2.4161966
H -1.341475 0.7742637 -1.8513026
