10

N 1.22162638 -0.23392338 1.02071383
C -1.13415550 0.59009530 0.55701791
C 0.59805547 -1.25619069 0.63014607
N 0.37064236 0.25637247 -1.34808196
C 0.08533547 -0.06073452 0.00025064
O -1.82784985 1.34441791 -0.08174798
H 0.03983320 1.19176811 -1.56350240
H -1.33426774 0.34405833 1.61910024
H 0.62888054 -2.33161704 0.73314293
H 1.35189973 0.15575318 -1.56703939
