10

N -0.8270754 0.86967695 1.3527792
C -0.17233239 0.1792996 0.34885234
C 0.350478 -1.0652752 0.21261865
N 0.98792833 -1.1459777 -1.0255305
C 0.81232774 0.008253199 -1.5523063
O 0.113928445 0.88422227 -0.7727253
H -1.5021666 1.5368748 1.0052575
H -1.2332255 0.26323384 2.050311
H 0.33189154 -1.9012662 0.8961699
H 1.1382459 0.37095812 -2.5154266
