11

C 0.6068254 -0.1212169 0.80891585
C 1.3743273 0.884944 -0.6281797
C -0.7638878 -0.5792235 -1.4367416
C 0.31665602 0.19908072 -0.7959208
O 0.8170928 -1.2722093 1.0898297
N 0.19473734 0.829451 1.6922917
H 0.2758118 0.5933724 2.6688893
H -0.8231464 -0.29765934 -2.4915648
H -1.7313675 -0.38480788 -0.96505606
H -0.544659 -1.6490383 -1.3681694
H 0.27761003 1.7973069 1.4257057
