11

C -0.7324596 -0.17201039 -2.314772
C -0.16258466 -0.12279959 -0.97078514
C 0.321043 -0.08842563 0.13386486
C 0.97988826 -0.09886934 1.4392852
O 2.0891027 -0.56188685 1.608403
N 0.24506736 0.467801 2.4405553
H 0.0036071069 0.15150312 -3.0569034
H -1.6094902 0.47704488 -2.3979971
H -1.0360976 -1.1928892 -2.5625129
H 0.61527365 0.40360206 3.376196
H -0.71335024 0.7369299 2.3046656
