11

C -1.57636012 -0.84713081 -0.20660918
C 0.73473487 -0.24962098 -0.52445691
C -0.57345343 -0.13780414 0.24062519
C -0.55541744 0.69757784 1.49406476
O 1.79245824 0.00984018 0.00701751
N 0.61093004 -0.65448749 -1.81378163
H 1.45375287 -0.77272745 -2.35759936
H -0.44325205 1.75733605 1.24167459
H -0.28986712 -0.76689903 -2.24735437
H 0.31299289 0.39819119 2.08837555
H -1.46651897 0.56572459 2.07804326
