11

C -0.43490598 -0.34403592 0.31342524
C 0.66369355 0.052371405 -0.6587633
C -0.47166383 0.38893637 1.6289858
C -1.1965643 -1.3460587 -0.03986171
O 1.646655 0.65089554 -0.27913252
N 0.4480069 -0.3154313 -1.9470968
H -0.4229821 -0.72470677 -2.2402332
H -1.1549094 -0.084910005 2.3340867
H -0.7811423 1.4281601 1.4753419
H 0.54161465 0.39577124 2.0415318
H 1.1621977 -0.10099196 -2.628284
