11

C 0.38058624 -0.88777643 -0.4608663
C -0.57328767 0.44089067 1.5671877
C -0.10746303 0.18378176 0.18120998
N 0.62931556 -0.44349062 -1.7592213
C 0.31650808 0.85401225 -1.9445366
O -0.14154147 1.2230232 -0.7197109
H 0.573456 -1.8961558 -0.13302818
H -1.6181413 0.77137774 1.5700555
H -0.4916673 -0.46707186 2.1669137
H 0.02539394 1.2277354 2.0369294
H 1.006841 -1.0063263 -2.504933
