11

C -1.3143946 0.4628533 1.551216
C -0.9595912 0.17735574 -0.6389396
C 1.607551 -0.23997442 -0.44726026
N -1.917501 0.51521516 0.32898363
C 0.21136075 -0.002133898 0.0018727776
O -0.009942411 0.10639904 1.3430734
H -2.3179014 -0.2631461 1.2238208
H 2.2442148 0.5975614 -0.14973795
H 1.6403637 -0.3459924 -1.5339735
H 2.0049243 -1.1478803 0.014645007
H -1.1890844 0.13974243 -1.6937006
