11

C -0.76925915 0.14820773 -1.99925277
C 0.31091914 -0.97246002 -0.32100070
C -0.05108061 0.22939995 0.15141836
N -0.14390519 -0.98979226 -1.63926330
C 0.10762126 0.92409657 1.45381698
O -0.69894711 0.89286073 -0.86491394
H 0.83513149 -1.79616300 0.13531098
H -0.86957938 1.18424396 1.87613354
H -0.03034946 -1.75552161 -2.28436721
H 0.67419644 1.85254705 1.33063482
H 0.63525277 0.28258076 2.16148326
