12

N -0.70024903 0.27843660 0.60359861
C -1.19890101 -0.82906774 0.00081721
N 1.44747737 1.41193465 0.32253320
C 0.48640826 0.32634323 0.00339416
O -2.43477379 -1.30299771 0.29168920
C -0.28982533 -1.36063575 -0.90385299
N 0.83472813 -0.56509718 -0.88617111
H 1.06159016 2.33493156 0.11608617
H -2.81363386 -0.70196438 0.94640920
H 1.71965454 1.40211733 1.30693593
H 2.26550226 1.24008568 -0.26530044
H -0.37797796 -2.23408635 -1.53613929
