11

N -1.0325483 0.87499255 -0.10735056
C -0.70447755 -1.2290026 -1.1450849
C 0.08821177 0.42094034 0.47017518
N 0.3997384 -0.68608063 -1.6623455
C 0.695083 0.33302268 -0.8646786
N 0.49684605 0.6467277 1.7144691
N -1.3800858 -0.5625688 -0.22189416
H -1.0669938 -2.2031822 -1.4577371
H -0.12193724 1.1398427 2.340344
H 1.3600047 1.1355369 -1.1761054
H 1.2661588 0.1297713 2.110208
