11

N -0.42350394 -1.6469723 -1.0638319
C -0.23448078 -0.48777023 -0.35913494
C 1.0129467 -0.1318217 0.1986376
N 1.1630478 1.0151374 0.8224223
C 0.06626591 1.7889721 0.87345344
N -1.1209525 1.4891288 0.3741332
N -1.2792655 0.3259389 -0.24691297
H 0.17654951 -2.430184 -0.8629673
H -1.3894286 -1.8812892 -1.2369041
H 1.8765501 -0.7908689 0.12865964
H 0.15227123 2.7497292 1.3724452
