10

O -0.64187247 1.9049224 0.96608925
C 0.4954471 -1.2215424 0.1345479
N 0.21893425 -0.24395752 1.0851532
C -0.29390392 0.4533439 -1.0254086
C -0.2955445 0.8753755 0.44389084
N 0.23323119 -0.90661293 -1.0717494
H -1.3078551 0.4924505 -1.4380289
H 0.90706056 -2.1773863 0.44227797
H 0.32709676 1.1319802 -1.6177566
H 0.3574062 -0.30857334 2.0809846
