10

O 1.6691965 -0.12788266 -1.4484372
C 1.1624733 0.79024786 -0.84359443
N 0.2783895 0.64735585 0.18731038
C -0.21575306 -0.660394 0.5739038
C -1.6511389 -0.81518924 0.28311348
N -2.7809582 -0.9168791 0.07686383
H 1.3846548 1.851034 -1.0559912
H -0.15136544 1.4684967 0.58540046
H 0.35575783 -1.3930995 0.0003157134
H -0.051255956 -0.84369004 1.6411152
