9

O -0.85866495 1.45101249 -1.15716051
C -0.58861393 0.47402908 -0.26012285
N -1.73582114 0.11816527 0.55235500
O -1.56061353 -0.74744262 1.36975414
C 1.66972845 -0.77097010 0.14020179
C 0.57388681 -0.11222790 -0.10931135
H 1.89878836 -1.69934325 -0.37945224
H 2.38892678 -0.40790238 0.87156948
H -1.78761688 1.69467923 -1.02783345
