11

C 1.0094594 -0.80881166 -1.1430348
C 0.21667212 -0.16318335 -0.060571134
C -0.88443273 0.6315678 -0.051063336
C -1.0913082 0.8828784 1.3318492
N -0.19719489 0.29203215 2.0739887
O 0.6309204 -0.3707539 1.1995003
H 1.0084685 -1.8970003 -1.0321642
H 0.5822959 -0.5564242 -2.1152027
H 2.0500085 -0.47000614 -1.1186346
H -1.4615536 0.984164 -0.8913073
H -1.8633356 1.4755371 1.8066397
