11

C 0.81007717 -0.62164683 -0.16543346
C -0.23403683 0.23067975 -0.61567715
C -0.65692034 0.68526244 -1.80203201
C -0.30876224 0.07330449 1.61465799
N 0.70077592 -0.65980954 1.21551651
O -0.91353943 0.62983452 0.58050093
H 1.30534288 -1.17827254 1.83528585
H -0.12939200 0.38837359 -2.70049238
H 1.59692639 -1.11622557 -0.69625302
H -1.51800402 1.33525236 -1.88891437
H -0.65246771 0.23324722 2.62284094
