10

O 2.3876152 2.0741684 0.76587504
C -0.22077362 0.46733484 0.09406456
C -1.3242722 -1.4663352 -0.8224411
N 0.41680598 0.9118355 1.0199262
O -0.8862489 -2.2496455 -0.011224616
C 1.8011978 1.1222498 1.1997361
C -0.9967049 -0.031635974 -0.85348594
H 2.2455263 0.34110093 1.8404518
H -1.390306 0.62202686 -1.6215596
H -2.0328403 -1.7910998 -1.6113427
