10

O -0.74813956 1.6898799 -1.0851407
C 0.05848266 -1.9350967 0.66105217
C -0.52150804 0.3749658 -0.665822
O 0.75263745 -0.8975383 1.0823042
C 0.5013014 0.33846152 0.44194078
O 1.1362529 1.2779704 0.8145918
H 0.44987306 -2.7390983 1.3233197
H -0.15799673 -0.2712648 -1.4814023
H -1.4613783 -0.07010328 -0.3162766
H -0.0095249815 2.2318237 -0.7745669
