10

O 0.21608296 0.66486144 1.9086691
C -0.15055814 -0.27736643 0.9467717
C 0.48161462 0.077913456 -0.38596004
O -0.056823827 -0.8220471 -1.491406
C -0.77337414 0.22064851 -1.6452324
O 1.5417466 0.6140489 -0.5225623
H -1.2407997 -0.3048322 0.8777354
H -1.3604466 0.19770482 -2.5825992
H 0.21407989 -1.2919855 1.1892147
H 1.1284784 0.9210541 1.7053692
