10

O 0.11854211 1.75393515 -1.22580447
C 0.11571949 0.41601562 -0.81818640
C -0.05040217 0.31572143 0.67745886
O -0.21335125 -0.96762941 1.24963793
C -0.21523096 -1.99066634 0.41944308
O -0.03795112 1.24347131 1.42834784
H 1.04557402 -0.10980151 -1.08987111
H 0.29486193 2.30081682 -0.44763841
H -0.69932883 -0.12223867 -1.31778938
H -0.35843322 -2.83962437 1.12440173
