13

N 1.321309 -0.34549114 -0.72911274
C 0.040886663 -0.7485255 0.1176812
C -0.552106 -1.9057008 -0.46441576
N 0.0061847204 1.5512476 0.82676935
C -0.8268943 0.46903995 0.29655576
N -1.0053405 -2.8773134 -0.91203314
H 0.25375256 1.3359855 1.7902087
H 1.4019741 -0.91762966 0.25857908
H 1.335557 -0.6636129 -1.695575
H -1.2306786 0.8202764 -0.6694837
H -1.6834148 0.20018682 0.9305127
H -0.51246876 2.4245408 0.8367211
H 1.4512389 0.65699637 -0.58640754
