12

C 0.64865214 -0.41415780 -1.93187986
C 0.20882974 0.16747648 -0.81411026
O -0.13348218 1.47734858 -0.70139997
N 0.04820552 -0.49736238 0.38947202
C -0.46000800 0.02417048 1.56263505
N -0.56896172 -0.73007898 2.57870306
H 0.30649863 -1.47206250 0.42007909
H 0.78501498 0.15905126 -2.84283082
H 0.87585755 -1.47294190 -1.95637138
H -0.02492723 1.89273340 -1.56605896
H -0.95816284 -0.21478383 3.36127806
H -0.72751660 1.08060730 1.50048376
