12

C 0.22257307 0.71516865 -0.18482572
C 0.08069444 2.07988 0.18837151
O 0.71969813 0.63625073 -1.3735945
N -0.15922856 -0.3933288 0.48074025
C -0.20854309 -1.6666785 -0.08896683
N -0.5353184 -2.654988 0.62599295
H -0.54129046 -3.5068533 0.06972745
H -0.6968159 2.3737695 0.8920439
H 0.06421735 -1.6647755 -1.1460813
H -0.42617452 -0.3159734 1.4519968
H 1.0403098 2.5647027 0.35915342
H 0.4398781 1.8328263 -1.2745582
