12

C 0.9875774 0.838112 -1.6268666
C -0.72249323 -0.92408913 1.1305233
O -0.0710146 1.5957394 0.37538087
N 0.00075245026 -0.6334791 -0.009235659
C 0.3387211 0.6235341 -0.4805277
N -0.97370917 -2.1370635 1.4111317
H -1.0181931 -0.044820875 1.7057896
H 0.16759174 2.4510207 -0.003465805
H -1.5123885 -2.1971567 2.2688284
H 1.2550775 1.8426851 -1.9371434
H 1.2586052 0.014383364 -2.2759128
H 0.28947288 -1.4288658 -0.5585015
