10

N 0.87384071 -1.46863191 0.87905490
C 0.50216291 -0.84087076 -0.29569291
O -1.42624589 2.07343738 -0.39623201
N -0.28167001 0.30848188 -0.04848735
C -0.68241520 1.14932980 -1.02638129
O 0.77634854 -1.24815348 -1.39280612
H 1.02083619 -0.91442971 1.70850520
H 1.54754576 -2.20738350 0.73757115
H -0.59806651 0.46174459 0.90697717
H -1.73233655 2.68647564 -1.07250879
