10

N 0.60234344 -0.80959576 1.5093207
C 0.015738035 0.17057267 0.7444011
O -0.39700723 1.2201989 1.1855112
N -0.10116304 -0.1750892 -0.6062821
C -0.6388076 0.6722585 -1.5629718
O -0.7645059 0.34488192 -2.7178326
H 0.83007056 -0.5154816 2.4478142
H 1.2497492 -1.4537548 1.0838569
H 0.12980081 -1.1043316 -0.93160725
H -0.92621833 1.6503409 -1.1522104
