12

O -0.07295404 0.06909471 1.8215996
C -0.30776247 0.6032662 -1.116984
C 0.44680107 -0.57041913 -0.47525492
O 1.7672539 -0.37319675 -0.08105672
C -0.6172575 -0.43803632 0.63841856
O -1.3438808 0.52323437 -0.11515028
H -0.71489954 0.4515556 -2.1206791
H 1.7324804 -0.015620928 0.8215263
H 0.24173084 1.5516225 -1.0675161
H -0.28439403 1.012362 1.8491291
H 0.37621522 -1.5001963 -1.0454922
H -1.2233331 -1.313666 0.8914596
