12

O -1.38154458 0.26807672 -0.33543829
C -0.22373258 0.67945072 -1.09297370
C 0.63614602 -0.40486172 -0.42694449
O 1.79132745 -0.01484279 0.24486327
C -0.61391271 -0.63023148 0.45429106
O -0.41189155 -0.19401301 1.76664254
H 0.09267621 1.69952568 -0.84177218
H 1.51955265 0.20364588 1.15157542
H -0.40211228 0.59056977 -2.16836266
H 0.86918487 -1.24486156 -1.08628634
H -0.82119534 0.67899608 1.84109692
H -1.05449822 -1.63145412 0.49330861
