12

N 1.09166235 -0.51964216 0.84641869
C -0.08747594 0.00833009 0.24256597
C 1.99450245 -0.31787857 -0.03682910
N 1.59296877 0.29589163 -1.25569928
C 0.33354368 0.48274612 -1.09639809
N -1.05930028 0.73966752 1.05593287
C -1.43752608 -0.55411625 0.52119616
H 3.03291647 -0.59917821 0.09856509
H -1.51880408 -1.34748676 1.25833970
H -0.30549659 0.93096900 -1.85063582
H -1.48924110 1.48706768 0.52003649
H -2.14774914 -0.60637018 -0.30349243
