10

O 0.9081037 -0.11560502 -1.2979438
C 0.18164928 -1.0790865 -0.19067195
C 0.72991973 0.123299174 0.45555624
C -0.34513944 1.0044224 0.77401954
N -1.180534 -0.671103 -0.23779315
N -1.4797276 0.46367523 0.38260272
H 1.6947153 -0.64391464 -1.4739952
H 1.7634666 0.24246135 0.7648127
H -1.946264 -1.2908005 -0.44521838
H -0.32618955 1.9666514 1.2686312
