10

O 0.89434535 -1.25672779 1.17550080
C -1.11088829 -0.13364216 0.30760021
C 1.01737823 0.49950603 -0.56853396
C 0.28013141 -0.66460018 0.06726095
N 0.03321459 1.33899807 -0.73410187
N -1.27190711 1.01343390 -0.22775115
H 0.16387186 -1.38610234 -0.76981732
H 0.10008361 2.24745636 -1.17438597
H 1.82578038 -1.00921394 1.13292684
H -1.93201022 -0.64910791 0.79130149
