12

O 1.44385798 1.06069682 0.31673186
C 0.28078930 1.08883694 -0.47247897
C -0.43186107 -0.25923757 -0.39955683
O -0.52956332 -1.56906769 1.57844477
C -0.86879322 -0.55340593 1.02021754
O 0.46474978 -1.25192544 -0.82592674
H 0.49940430 1.31079772 -1.52655133
H -0.36243089 1.88599373 -0.08165337
H 1.92291546 0.26272650 0.04882241
H -1.51944447 0.19744016 1.50928264
H -1.33859600 -0.23281724 -1.02794999
H 0.43897199 -1.94003799 -0.13938213
