10

N -1.336319 -1.6167266 -0.661254
C 1.423214 0.3916788 1.0437372
C 0.26567122 1.0824354 0.8791347
C -0.44800687 -0.69863683 -0.7646138
C -0.642027 0.5989317 -0.05310023
O 0.63457704 -0.5292613 -1.4182816
O 2.4340482 -0.11923595 1.199824
H -1.0684304 -2.402296 -1.2554607
H 0.18818706 2.0340743 1.400074
H -1.450914 1.2590368 -0.37005943
