10

N -0.95485003 -1.95410745 -0.27291369
C -0.10674336 0.24171053 0.84808400
C 0.91480671 1.03278996 0.14650082
C 1.37734972 0.66111302 -1.03326885
C -0.85963807 -0.79842735 0.20307408
O 1.82252116 0.36325986 -2.06124409
O -1.54022939 0.34604507 0.33060759
H -1.87943034 -2.11238436 -0.67337198
H -0.08825589 0.27588219 1.93553901
H 1.31446956 1.94411869 0.57699294
