11

C -0.21135238 -0.40532812 0.3353672
O -1.1066339 0.57661265 -0.18620268
C 0.46547702 -1.243124 -0.72101885
C -0.29947183 1.5422403 0.4578957
O 0.63073474 0.5873789 0.9240121
H 0.14316063 2.2613528 -0.24033019
H -0.26834223 -1.8831074 -1.2183775
H -0.823167 2.054618 1.2728441
H 0.93653816 -0.5982949 -1.4675914
H -0.6977794 -1.0160027 1.1063823
H 1.2308364 -1.8763453 -0.26298118
