10

O 0.35709059 -0.93031745 2.41259289
C 0.01741549 -0.32623298 -0.90681274
C -1.34695706 0.23471084 -1.16129766
N 1.12556250 0.71982887 -0.66417532
O -1.74888381 1.22945545 -0.60817878
C 0.92020048 -0.08200762 1.76727683
C 0.70578366 0.05718186 0.30936422
H 0.30586430 -1.21592194 -1.46149706
H -1.96690137 -0.32917609 -1.88592435
H 1.63082536 0.64247865 2.19865196
