10

O 1.9861166 -0.7812566 -0.2667317
C 0.09778785 0.49777412 0.72464645
C -1.202679 0.6289121 0.2523284
C 0.73466057 -0.28534338 -0.24058297
N -0.06338295 -0.529599 -1.2812871
N -1.3465852 0.07212323 -0.9582867
H -1.1281966 -1.1317164 -1.1133536
H -2.0451384 1.1240287 0.7165001
H 0.5219795 0.9064301 1.6333283
H 2.445437 -0.5013528 0.53343886
