10

O -1.0173151 0.65463203 1.6521436
C 0.8672475 -0.512705 -1.1034808
C 0.8692312 -0.3092095 0.29942915
C -0.37293723 0.23153241 0.54416084
N -0.26237315 -0.13547912 -1.6687899
N -1.0121415 0.31982356 -0.63850695
H 1.6609788 -0.9231277 -1.7125133
H 1.6519072 -0.5223722 1.0128406
H -0.444316 0.5225855 2.416893
H -1.9402817 0.67432004 -0.8021762
