11

O -1.5709975 0.059327096 1.8029683
C -0.6988235 0.01576632 0.78396
N 0.39905918 0.7122116 0.6650063
C 0.9205561 0.29977116 -0.5402942
O 2.077544 0.81905496 -1.0003746
C 0.14160758 -0.63975954 -1.1435791
N -0.9245839 -0.81199276 -0.24968086
H -1.2226231 0.7045524 2.431085
H 2.3699932 1.4522964 -0.33209255
H 0.2209212 -1.1822683 -2.0701032
H -1.7126529 -1.4289594 -0.3468957
