10

O 0.034977186 -2.5526202 0.5154021
C -0.23728523 -1.9920985 -0.51173455
O -0.23071787 -0.6694307 -0.6998789
C 0.13436346 0.097707115 0.4631803
C 0.10278705 1.5123926 0.11132309
C 0.088009305 2.6869302 -0.1364493
H -0.5328513 -2.4898267 -1.4466723
H -0.56781286 -0.118087925 1.27429
H 1.1330094 -0.2055248 0.794472
H 0.07552067 3.730559 -0.36393237
