10

O 0.69413906 -0.34706375 2.1068656
C -0.6566795 -0.45817542 -1.050629
O -0.09664055 0.7637709 -1.1499498
C 0.30308607 -0.19430731 0.97385883
C -0.48839423 -1.0911129 0.12050739
C 0.5499635 1.0369196 0.09584154
H -1.1813455 -0.7817378 -1.9443325
H 1.6154447 1.1988608 -0.087429754
H -0.8545156 -2.0677495 0.40391847
H 0.11494205 1.9405957 0.53134906
