10

O 0.22050982 -0.22749689 2.22278781
C -0.62394676 -1.02288715 0.08927885
O 0.22004532 0.66568736 -1.19310948
C 0.08075726 -0.13699343 1.02602565
C 0.63501643 0.98209057 0.13820230
C -0.48442409 -0.48169132 -1.13061078
H -0.85589732 -0.82917804 -2.08974247
H -1.14790655 -1.93004619 0.35520056
H 1.72709625 1.02157179 0.16763728
H 0.22874945 1.95894338 0.41433034
