10

O -1.3242147 -0.22603725 0.7539844
C -0.12065001 0.33277252 0.71392286
O -0.09347116 -0.11042223 -1.357504
C 1.026374 -0.47619924 0.9309548
C -0.081102885 -0.87769175 -0.23926334
C -0.0009163159 1.1460094 -0.6039216
H -0.28626776 -1.9409226 -0.26592204
H 0.77411395 -1.2504745 1.6702095
H -0.85738486 1.778823 -0.8366467
H 0.96351975 1.6241422 -0.76581395
