11

N 0.76750597 1.04600153 1.06345511
C -0.07555735 -0.08036970 0.73675211
C -1.45647677 0.37073898 0.23221280
O -1.50042358 -0.00248047 -1.02177996
C -0.33470893 -0.73154645 -1.46923512
O -0.22692862 -1.11830471 -2.58942061
N 0.45169392 -0.83037387 -0.38249513
H 0.45567967 1.47811395 1.92514079
H 0.71582728 1.74776447 0.33091679
H -0.19370216 -0.70920800 1.62571904
H 1.39709065 -1.17033590 -0.45126596
