11

N -0.27636341 -0.68869063 1.50642749
C 0.04886945 0.65970417 1.03937648
C -0.09459911 -0.79049530 -0.76750249
N -0.32217953 -1.37317038 0.41652843
N 0.43731806 1.61003915 -1.21038130
C 0.16828946 0.60057754 -0.47542041
H -0.74017604 1.35240517 1.35248510
H -0.54008435 -2.36015765 0.51661561
H -0.12811794 -1.34373246 -1.69026740
H 0.46319834 1.34246971 -2.19382702
H 0.98384501 0.99105047 1.50596505
