12

O -0.66469944 -1.450801 0.8815964
C -0.05916278 -0.22271822 1.1999171
C 0.44481856 0.45336407 -0.07276677
O 1.3278434 -0.4235878 -0.7212744
C -0.7115707 0.7746035 -0.9997709
O -0.727194 0.37840658 -2.140012
H -0.027273973 -1.9106288 0.31557024
H 0.7873823 -0.34744245 1.8887446
H -0.8151927 0.39816728 1.6940066
H 0.9374858 1.4058924 0.18807313
H 1.0305312 -0.46070093 -1.6463999
H -1.5229675 1.4054452 -0.5876835
