11

C -0.41010147 0.91718936 -1.1540674
C -0.07483741 -0.33343834 -0.3782616
O -0.056487143 -1.4371859 -0.8789041
C 0.27750129 -0.18590587 1.0938623
O 0.6545828 -1.402089 1.6545266
H 0.52046984 1.3336117 -1.5592864
H -0.8664327 1.6836121 -0.5183345
H -1.0682937 0.67893565 -1.9919145
H -0.60318357 0.24008437 1.6029612
H 1.0813886 0.56188166 1.184615
H 0.5453935 -2.0566957 0.94480366
