11

C 0.35444346 0.39962482 -1.1724322
C 0.3660946 -0.46470287 1.3264179
O -0.54603344 1.4440008 -1.1654882
C -0.2910174 -0.21037193 0.02125595
O -1.5621296 -0.38348553 -0.07468832
H 0.33696944 -0.26375428 -2.0594397
H -0.3404165 -0.85607463 2.0592344
H 1.2184523 -1.1374369 1.1866658
H -1.7031629 0.31424442 -0.84046537
H 1.4065781 0.6633567 -0.9568747
H 0.7602218 0.4945994 1.6758144
