13

N -1.037872 0.39657655 -1.0639582
C 0.8066545 -0.38263 0.45449197
C -1.6109794 -0.5949514 1.0906367
N 1.638961 0.50566334 -0.35814193
C -0.60200334 0.15150456 0.4334904
N -2.4548676 -1.1773204 1.6368599
H 1.1255842 -0.4888323 1.5017133
H 2.5669606 0.1160908 -0.47827557
H 0.86504024 -1.3849694 -0.005496274
H -1.6986823 -0.27052695 -1.4531875
H 1.7394288 1.3973961 0.1201879
H -1.1625813 1.2121156 -0.28379777
H -0.17564309 0.5198833 -1.594523
