12

N 0.5028392 -0.32572097 -2.08525
C -1.015047 -0.13464819 0.62307066
C 0.91274625 0.15886508 -0.9918103
N 1.1070704 0.6239472 1.3600817
C -2.803998 -0.74933076 -1.0922265
N -1.9496138 -0.4558678 -0.338402
C 0.26728827 0.1783807 0.3571863
H -1.4010484 -0.11663345 1.6382385
H 1.9016696 0.6351338 -0.99348867
H 0.80725574 0.4676852 2.312185
H -0.42115724 -0.74211985 -2.0124128
H 2.0919948 0.46030897 1.222828
