11

C 1.31402875 0.17867798 -0.58037794
C -0.10444240 -0.00316933 -0.24286881
C -0.64036345 0.28895433 1.13955005
O 0.33292501 1.10966715 -1.00428350
C -0.86095118 -0.99267874 -1.01040246
N -1.47112023 -1.78762221 -1.58317544
H 1.76478384 -0.41409246 -1.37409813
H 1.98460808 0.52635541 0.20354029
H -0.00207595 1.02829591 1.63024920
H -0.66093992 -0.62227293 1.74349494
H -1.65645263 0.68788484 1.07837157
