10

O -1.3681995 0.7354629 0.3020927
C -0.4412444 -1.1225244 -0.27732134
C -0.4405098 1.5547966 0.29385424
O 0.61838144 -1.7430799 0.22426507
C 0.8041111 0.9161195 -0.11718424
O 1.8242334 0.6825271 0.49284643
H -0.6128638 2.6347806 0.31924835
H -0.46820417 -0.85463166 -1.3275816
H 1.4381838 -1.3352834 -0.10300489
H -1.3538883 -1.4681678 0.19278528
