11

O -1.79907 0.6618578 -1.6444246
C -1.1599984 0.029631047 -0.8674465
O -1.2153285 -1.3150785 -0.6063538
C -0.22199056 -1.2426466 0.45462248
C -0.043847304 0.23625858 0.13908315
C 1.1279784 1.0992432 0.06742961
O 0.09159061 1.2964622 1.029663
H 0.6270233 -1.8967333 0.24814704
H -0.66772884 -1.460726 1.4271092
H 1.1889708 1.8521676 -0.7160617
H 2.0724003 0.7395639 0.46823204
