11

O -1.76844407 1.56526307 -0.89329280
C -1.13834662 0.88372064 -0.15099271
O 0.02564999 -1.23684914 -1.09712873
C -0.19677868 -0.22912313 1.30687146
C -0.05086646 -0.17176386 -0.20545785
C 1.09332871 -0.28675568 -1.09803120
O -1.17429686 0.84857663 1.21846133
H 2.03713087 -0.65116594 -0.69700067
H -0.64985285 -1.14085907 1.69770528
H 1.15066434 0.34979238 -1.97862144
H 0.67181144 0.06916403 1.89748726
