11

O 0.50823814 0.8913975 1.2237988
C 0.02563309 0.21963161 0.05316143
O -2.1585596 -0.8411585 0.7677901
C -1.0792831 -0.8011341 0.27163285
C -0.10629565 1.646154 -0.2773678
C 0.76470166 -0.93775827 -0.61315507
O -0.39729992 -1.7820433 -0.39092192
H 0.9722856 -0.8166634 -1.6766592
H -1.1072891 1.9935542 0.011559986
H 1.6292104 -1.3119235 -0.06213932
H 0.9486585 1.7399435 0.6923003
