11

N 0.29643545 0.30673358 1.9995515
C 0.11651081 0.105287 0.76435745
C -0.63381624 0.8461891 -0.34213182
N -0.42537275 0.08133816 -1.5756674
C 0.29150984 -0.91613877 -1.2461525
N 0.64795357 -0.9908385 0.08938333
H -0.17578594 1.1599771 2.2978454
H -1.7054166 0.9148536 -0.11796383
H -0.26049307 1.8700839 -0.46357706
H 0.62620246 -1.6873322 -1.9364555
H 1.2222724 -1.6901529 0.5308104
