11

N 1.57654322 -1.39607026 0.63925215
C 1.01645105 -0.24118346 0.88069193
C -0.87852578 1.14459426 -0.05928587
N 0.01700477 0.00330951 -0.01386707
C 0.01257456 -1.09796397 -0.81313809
N 0.93787959 -1.94134831 -0.43877902
H -1.76096538 0.96893236 0.56298408
H -1.18992607 1.32026068 -1.09093379
H -0.35055411 2.02974998 0.30091641
H -0.67164137 -1.23362414 -1.63903047
H 1.29115945 0.44334343 1.67118972
