11

N 0.11488765 0.017315589 0.2631945
C -1.2383356 1.3900288 0.5323618
C -0.13283482 -1.3313653 0.21000074
N 0.7607938 -1.9309518 -0.52573425
C 1.2149179 0.18153733 -0.5394921
N 1.6152436 -0.96901894 -1.0053582
H 1.6818913 1.1400392 -0.7134287
H -0.053783204 0.58791494 1.1594001
H -0.9464162 1.974314 -0.35430142
H -0.9431347 -1.8023467 0.74789923
H -2.0732298 0.742533 0.22545855
