11

N 0.0053732125 -0.0045539704 -0.021042831
C 0.16380073 -1.3559489 -0.03805857
C 1.2800633 0.4774735 0.020432023
N 1.4319445 -1.6704193 -0.014585265
C -1.2340117 0.7499684 0.013449867
N 2.1422017 -0.5035829 0.0228063
H -0.66147035 -2.0535846 -0.067814365
H -1.553942 0.92146176 1.0454437
H -2.009647 0.19774033 -0.52092856
H 1.5195404 1.5315075 0.044754177
H -1.0838529 1.7099382 -0.48445648
