12

O 0.28402878 0.92203283 -1.46404017
C 1.37161570 1.21127756 -0.57317280
C 0.57115104 0.41989956 0.42121216
N -1.50848977 -0.19725122 0.15606156
N 0.65696368 -0.75032207 0.88423568
C -0.69479843 -1.28247135 0.76735049
N -0.64604483 0.83614003 -0.13755179
H -2.03908440 -0.45618054 -0.67398288
H 2.30927675 0.75160123 -0.88670563
H 1.46490082 2.28290726 -0.37599115
H -0.66368387 -2.17653125 0.13643021
H -1.10583535 -1.56110158 1.74615434
