12

O 0.40223953 1.1758814 -2.169265
C 0.7543649 1.289238 -0.81546414
C 0.21293648 0.16876043 0.020671217
N -0.7489564 -0.61218053 -0.42847452
N -0.9819209 -1.4176431 0.62624633
C -0.16209564 -1.0934329 1.6448438
N 0.6086373 -0.09082764 1.2974509
H -0.487274 0.803189 -2.2085993
H 0.40203926 2.2375522 -0.37967715
H 1.8468705 1.2913913 -0.7530037
H -1.6784813 -2.1424 0.57091117
H -0.16835961 -1.6095277 2.5943604
