11

C 0.18702877 -1.2838897 1.3608916
C 0.3833189 0.05329072 -1.259964
O -1.3882118 0.508767 0.3692158
C -0.0027044294 0.7869431 -0.0048043295
C 0.013869522 0.14311497 1.3229235
N 0.38302758 -2.4148686 1.5034777
H -0.050509676 0.54400223 -2.1356013
H 0.20830578 1.8586103 -0.020480346
H 1.4730246 0.062062595 -1.3618629
H 0.044529047 -0.98550284 -1.2203825
H -1.2516781 0.7274699 1.4465865
