11

C -0.82033044 0.7462938 -0.83546406
C 0.50103945 0.62605596 -0.12868847
O 0.4920839 0.6836307 1.2899088
C 0.8683165 -0.5429298 0.69068986
C -0.057314012 -1.6546596 0.85435086
N -0.7753963 -2.5525434 0.96218276
H -1.1546944 1.788264 -0.83248955
H -0.72160757 0.42218688 -1.8771701
H -1.5855609 0.1370113 -0.3477083
H 1.3381027 1.1637502 -0.5783411
H 1.9153613 -0.81706 0.8027293
