11

N 0.88653725 -0.56000113 -1.1844438
C -0.10650795 1.2620299 1.2996056
O 0.72400177 -2.0159025 0.5582904
C -0.5548596 -0.032973405 0.70324
C 0.39628142 -0.98188007 0.010309226
O -1.0610238 0.9965883 -0.21807271
H -1.9167968 1.3114566 0.1015806
H 1.5648285 -1.1438595 -1.6488996
H 0.5538131 0.27897727 -1.6260121
H -1.3455983 -0.5894868 1.2045319
H 0.8593244 1.4750516 0.79987055
