10

O 0.19301277 -0.62649274 -1.9422238
C -0.14271522 -0.08832619 0.07775433
N -0.62638164 -0.86435294 -0.84535325
C 1.0827911 0.27713156 -1.5470502
C -0.71387297 -0.008651018 1.4512688
N 0.9506681 0.6626071 -0.3244432
H 0.046934105 -0.26941034 2.193251
H 1.816429 0.5932697 -2.2761848
H -1.5618409 -0.6886448 1.5508771
H -1.0450248 1.0128697 1.6621046
