9

O 1.0042086 -0.94865763 -1.5002766
C 0.310679 -0.34852743 -0.51855886
C -0.94070315 -0.6227077 -0.07653607
O -1.1959745 0.26745343 0.9410968
C -0.089295916 1.0067236 1.0369661
N 0.84558886 0.6949682 0.20009072
H 1.8613998 -0.50463444 -1.5472522
H -1.7164661 -1.3259238 -0.325268
H -0.079436556 1.7813059 1.7897379
