11

C 0.5092832 -0.96379316 1.5008341
C 0.16573454 -0.12313881 0.3202829
N 0.6353046 1.0335058 -0.007968119
C -0.032608245 1.3591729 -1.1806706
C -0.8778115 0.35919303 -1.4993573
O -0.7627557 -0.6064165 -0.5425736
H -0.38445142 -1.1976428 2.0874712
H 1.2155584 -0.41631794 2.1273053
H 0.9657035 -1.9094044 1.1922563
H 0.14655629 2.2890956 -1.7004435
H -1.5805136 0.17574637 -2.2971365
