11

C -0.26682603 1.9307417 -0.13007973
C 0.22426039 -1.6859523 0.117884375
N 0.43904713 0.7609491 -0.45697847
C -0.14210932 -0.24786864 0.15415101
C -1.318864 1.6400992 0.71017027
O -1.1615283 0.20388816 0.83996755
H 1.2516607 0.6814486 -1.0503789
H 0.048983358 2.8832874 -0.53019357
H 1.1274496 -1.8482316 -0.47529218
H 0.3926774 -2.0509043 1.1352389
H -0.594751 -2.267457 -0.31448928
