11

O 1.8267628 1.2185894 -1.2263095
C -1.673945 -0.1388348 0.7533525
C 0.81636804 0.86743283 -0.4167546
N -0.53744555 -0.75247896 0.6400664
C 0.53098625 -0.4741727 -0.2960944
O 1.1321387 -1.4286373 -0.8273503
H 0.37359598 1.6661246 0.16865548
H -2.344536 -0.38877127 1.5644082
H -1.9187522 0.6383753 0.036586303
H 2.150832 0.37574062 -1.591566
H -0.35600471 -1.5833677 1.1950061
