11

O 0.52673424 -1.51836520 -1.19346942
C 0.31704180 -0.53762374 -0.45266240
C 0.91638024 0.70059982 -0.51184768
N -0.57833684 -0.68936914 0.67457686
C -1.46644544 0.15285033 1.10230736
O 1.80142060 0.91739000 -1.49637458
H -2.00377831 -0.04762253 2.01939835
H -0.51584973 -1.61208570 1.09403421
H 1.81211873 0.08509107 -2.00233037
H -1.63512619 1.06293968 0.53571751
H 0.82584096 1.48619553 0.23064988
