11

O -1.5688287 0.060625583 1.8036418
C -0.70002127 0.015552957 0.78377885
N 0.3987448 0.70909137 0.664479
C 0.9204146 0.2986494 -0.539211
O 2.0785515 0.81526667 -0.99777883
C 0.13978979 -0.63858706 -1.1446493
N -0.9270539 -0.8096976 -0.25098017
H -1.2175446 0.7056586 2.431786
H 2.3740475 1.4478581 -0.32872882
H 0.21930094 -1.1796664 -2.0727372
H -1.7174007 -1.4247514 -0.3496006
