11

O -1.84986750 0.34993751 1.26411418
C -0.80420588 -0.38576411 0.71702166
N 0.48538017 0.34158035 0.74958807
C 0.88140017 0.27243628 -0.44557217
O 1.99993059 0.71813438 -1.01006183
C -1.13977146 -0.78439059 -0.72542060
N -0.02605781 -0.39597666 -1.32628828
H -1.59393428 0.57215503 2.16690364
H 2.52206383 1.15758557 -0.32401184
H 0.16341178 -0.50279577 -2.31353534
H -0.63834963 -1.34290176 1.24726224
