17

C -0.72972244 1.8081139 -1.4673076
N -0.32408068 0.9204223 0.9557662
C -0.07056633 0.47082937 2.3064113
O -0.18855134 0.50511605 -1.2816886
N 0.58538455 -1.1002544 0.0863873
C 0.6789552 -2.0003383 -1.0446498
C 0.0010193295 0.14492631 -0.0025974263
H 0.9928868 0.26050264 2.4957428
H 1.316605 -2.8413253 -0.76044285
H -0.2954955 -2.386396 -1.3690513
H -0.3777048 1.2605811 2.9972274
H 1.1441145 -1.4865286 -1.8889511
H -0.6459045 -0.43198407 2.5694106
H 0.50461096 -1.5248663 0.99328756
H -0.8258416 1.9255005 -2.548099
H -1.704779 1.9037883 -0.98162794
H -0.060930062 2.5719118 -1.0598176
