17

C -1.48514485 1.85193394 -0.56519722
N -0.20182215 0.49128646 1.25841171
C -0.02909997 0.13408533 0.04675199
O -0.66174345 0.75983672 -0.95820838
N 0.79395561 -0.86614627 -0.42440855
C 0.52993665 -0.21777588 2.28427972
C 0.72422920 -1.35696136 -1.78543397
H -2.26819799 1.52765603 0.12577691
H 0.29094542 0.23073456 3.25226231
H -0.89373931 2.63373145 -0.07965555
H -1.92221013 2.22735196 -1.49210811
H 1.07604353 -1.52689793 0.27781746
H 0.25458288 -1.28355913 2.34378693
H 1.62075901 -0.15779602 2.15189652
H 0.80130036 -0.52121675 -2.48458291
H 1.57380560 -2.02407143 -1.95220953
H -0.20360041 -1.90219175 -1.99917937
