12

O -0.84262647 -0.30621176 1.43490465
C -0.10880195 1.43004547 -0.97684358
C 0.67145897 0.31611802 -0.36523009
C 0.52088095 -0.23808060 1.04391321
N -0.43107428 -0.07958335 -1.26295616
H -0.22878343 -0.42452005 -2.19115618
H -0.89586301 1.69685926 -0.25504093
H 1.65835515 0.10562242 -0.77918972
H 1.02182350 0.44579106 1.73459009
H -1.22060834 -0.52012715 -0.79970544
H -1.15658891 -1.20351165 1.29612570
H 1.01182793 -1.22240159 1.12058849
