10

O 1.86583445 -0.98188730 0.23805432
C -0.85714515 0.84114360 0.11490047
C 0.75513108 -0.24761490 0.18231565
C -0.52355116 -0.53100851 -0.53567125
N 0.49863719 0.88303754 0.72936225
H 2.50388210 -0.51124168 0.79411801
H -0.46837737 -0.54714886 -1.62672293
H -1.09330482 -1.38949836 -0.17068413
H -1.65590547 0.82140346 0.86104170
H -1.02520059 1.66281474 -0.58671402
