10

O -0.9401638 1.4777641 -1.3918072
C 0.7678665 0.45369163 0.43331775
C 0.10401769 -0.95796794 0.48750043
C -0.34081113 0.71357363 -0.5650881
N -0.89344406 -0.46506453 -0.50031894
H 0.72437626 -1.7761484 0.11039491
H 0.7078929 1.0405867 1.352722
H -0.33526683 -1.229999 1.4517846
H 1.7785121 0.48899707 0.021017496
H -1.5729796 0.25456655 -1.3995229
