13

N -0.18697424 -1.51136857 -0.85754406
C 0.14681781 -0.83695486 0.38878851
C 0.25407937 0.66979859 0.09957286
N -0.98179394 1.12883761 -0.49990979
C 0.49960744 1.40645571 1.34896429
N 0.72081031 1.98933218 2.32255109
H -1.22266570 0.47242446 -1.23440933
H -0.53318048 -2.44509191 -0.67977605
H 1.14381259 0.83564263 -0.53481488
H 0.64236728 -1.60626597 -1.43537504
H -0.88180804 2.06649544 -0.87196895
H -0.67782484 -0.98242701 1.09457288
H 1.07675178 -1.18687781 0.85934777
