13

N -0.21852711 0.9603726 3.0337977
C 0.3543885 0.2292069 0.6279215
C 0.017276285 0.62409043 1.9463743
N 0.26398262 1.498964 -0.33378285
C -0.3703582 -0.92720634 0.00061518274
N 0.09188457 -1.0812615 -1.3838546
H 1.270478 1.1144885 0.06370648
H 1.0480666 -1.4252617 -1.3708396
H -0.38674346 2.2282777 -0.036304325
H -0.47371244 -1.771515 -1.8701341
H -0.22027735 -1.8152792 0.63060266
H -1.455969 -0.7399882 -0.050235253
H 0.07951086 1.1051122 -1.2578671
