13

N 0.8394426 -1.0256094 -1.1393145
C -0.51414776 1.0570495 1.6327059
C 0.6918823 -0.5808132 0.23908246
N -1.509286 0.25464985 -0.38119873
C -0.25973845 0.6273987 0.24901418
N -0.696351 1.4181255 2.7157447
H 1.6361144 -0.30762762 0.73146915
H 0.2524657 1.4725604 -0.24588567
H -2.0864773 1.0687861 -0.5591307
H 1.2230308 -1.960909 -1.1763855
H -1.2801721 -0.22195266 -1.2464986
H 0.21740408 -1.3828282 0.81438375
H 1.4858326 -0.4188298 -1.6339861
