11

O 0.80003105 -0.38272765 -1.20960177
C -0.09248177 0.34029592 -0.34753362
C 0.58625105 -0.04125062 0.93972193
C 0.26929274 -1.07727643 -0.08291888
O 1.88139811 0.32042341 1.21294374
C -1.44925777 0.73321875 -0.74022882
O -2.22059150 1.27351376 0.01798970
H -1.70521762 0.46450470 -1.78521091
H -0.38528622 -1.93063913 -0.20200860
H 2.35748994 0.29971089 0.36999539
H -0.04162816 0.00022616 1.82685154
