11

O 0.88580495 -1.0765548 -0.55321413
C 0.5307399 0.6893301 0.68673754
C -0.08604255 -0.021260193 -0.4871124
C 0.31909695 -0.7849624 0.72244704
O -2.2696714 0.7333159 -0.92953056
C -1.4325721 -0.12972496 -1.05679
O 1.7909412 1.2291383 0.6287379
H -0.14981028 1.3105383 1.2645813
H -0.29055884 -1.5077146 1.2485962
H 2.3166094 0.64310896 0.06491441
H -1.6145372 -1.0852145 -1.5893674
