11

O -1.946363 0.3048699 -1.241563
C -0.35413355 0.68881595 1.2911117
C -0.74318945 0.31433517 -1.2163105
C 1.4786851 -0.3856905 -0.14097658
O 2.128566 -0.007187291 -1.0777876
C 0.029430894 -0.03022017 0.035031803
O -0.6876182 -0.9834163 0.8307726
H -0.12644632 0.6120612 -2.086412
H -0.32052922 -0.6314265 1.8069348
H 1.8885784 -1.0129149 0.6741568
H -1.3469807 1.1307733 1.1250417
