13

C -0.07158482 0.9505063 0.52855366
N 0.6288594 -0.4273256 -0.03931189
C -1.2737622 0.60821855 1.0486662
O 0.6127379 1.9400702 0.3308301
C 0.99123645 -0.27525124 -1.4599128
O -1.7429967 -0.717151 0.9980347
H -1.9478511 1.3654662 1.4325182
H 1.4636394 -0.57832235 0.524262
H 1.6268541 -1.1020918 -1.783572
H 0.0705288 -0.2425374 -2.046734
H -0.050362833 -1.1730491 0.11267922
H -1.8193184 -1.0275846 1.9103726
H 1.51202 0.6790517 -1.5563861
