13

C 0.5850585 -1.5836501 -1.1660378
N 0.2256226 -0.64598835 -0.12555002
C -0.052964915 0.6597263 -0.3781129
O -0.07396781 1.1677717 -1.4845356
C -0.33673468 1.4775633 0.8770382
O -0.5642206 0.697802 2.036906
H -0.10967377 -2.4295328 -1.1855906
H 0.53700244 -1.0561014 -2.119159
H 1.6020049 -1.9627408 -1.0174885
H 0.2663881 -0.9160821 0.84640086
H -1.1671728 2.1578789 0.6518399
H 0.5466859 2.0908227 1.0820018
H -1.4580282 0.3425311 1.9822872
