13

C 0.7631544 1.5421604 -0.8190843
N -0.19714028 0.54937094 -0.34793562
C -0.37226522 -1.1653719 1.1497519
O -1.7721201 -1.1737788 0.90293336
C 0.44061866 -0.80942607 0.012321145
O 1.532497 -1.1012353 -0.39266554
H 1.3524117 1.1434925 -1.6477242
H 0.229993 2.4432995 -1.1301736
H -0.005425496 -1.9715265 1.785204
H -1.0232882 0.4482228 -0.9289779
H -0.39584637 0.3373461 0.88968444
H 1.4424098 1.7886217 0.0022347511
H -1.9949988 -2.0311754 0.52443147
