12

N 0.47615813 -1.10593035 -1.28477295
C 0.49689879 -1.49355836 0.19392679
N 0.15190264 0.72981960 1.12433945
C 0.72537915 -0.40372211 1.17774968
C -0.59403155 -1.47572960 -0.76354668
C -0.82072698 1.27401086 0.44618605
N -0.47267457 2.12378906 -0.52886523
H 0.49409136 2.30593945 -0.78579861
H 0.97042967 -2.44271134 0.44028820
H 1.39476516 -0.60313023 2.01254334
H -1.64256521 -1.55687017 -1.02353805
H -1.17962606 2.64809307 -1.00851187
