12

N -1.475617 -0.606758 -0.40566686
C 0.21726726 0.99075586 1.1618487
N 0.84077024 1.0989219 0.01534184
C 0.4363368 0.72376734 -1.1353091
C -1.0256621 -1.2018553 0.60307264
C -0.733021 -0.009295942 1.3995312
N 1.1337916 -0.009228702 -1.9958384
H -1.0876914 -2.2565682 0.89237106
H 1.9990265 -0.48296547 -1.7560028
H 0.74352366 -0.19113858 -2.9045577
H -1.4388897 0.1940624 2.2056909
H 0.39016497 1.750303 1.9195188
