12

N 2.1663408 0.39253575 -0.6947364
C 0.8856911 0.16506265 -0.28287247
N 0.7048366 -0.84418297 0.58671135
C -0.5406946 -1.0247563 1.0069531
C -1.6081041 -0.23812881 0.586823
C -1.2933147 0.7662609 -0.32055706
N -0.061154373 0.98295397 -0.7704047
H 2.290734 0.96455985 -1.5145987
H 2.833798 -0.345022 -0.53187364
H -0.6931402 -1.8428527 1.7085073
H -2.6192338 -0.40174785 0.9384448
H -2.0657582 1.4253174 -0.71239644
