9

O -0.14272995 -0.5295445 -1.4180464
C -0.374846 -0.8300082 -0.032097176
C -0.012942998 0.07755895 0.9854231
O 0.8826511 0.61414427 1.7753923
C 0.47231093 0.59384346 -1.6605095
N -1.2586213 0.08082277 0.7447136
H 0.4517974 1.2934068 2.3179178
H -0.5211759 -1.9020234 0.06149413
H 0.50355667 0.6017997 -2.7742877
