10

N -0.91228491 -0.04095930 -0.47777429
C -1.02484773 -1.08747956 0.31985310
O 0.04307041 -1.23667545 1.02700969
C 0.36388107 0.59938172 -0.29589483
C 0.94100719 -0.22473281 0.68012828
N 0.62327748 1.65467444 -0.99848691
H -1.59155920 0.30959968 -1.13561097
H -1.85462800 -1.77127903 0.41826277
H 1.54780987 2.00730208 -0.77021862
H 1.86427419 -0.20983137 1.23273200
