12

O 0.94186616 1.2593762 -0.7453229
C -0.104383476 -0.7753972 0.00045582128
C -1.0418895 -0.1557726 0.9655106
O 0.90462464 -0.8215828 0.9267603
C 0.25123867 0.120837696 -1.2100011
O -0.672795 0.90018034 1.5993646
H 0.8672231 -0.4801376 -1.8914694
H 1.6574697 0.9009642 -0.19810636
H -1.9736543 -0.6046841 1.3042507
H -0.49295282 -1.7444781 -0.35079023
H -0.6358984 0.4661646 -1.7507977
H 0.29915136 0.9345293 1.3501456
