11

N -0.8809125 -1.054804 0.18176241
C 0.160329 -0.5268569 0.6999648
N -0.28534168 1.7971096 -1.7741104
N -1.266225 -0.10369253 -0.7661702
C -0.32116175 0.88356054 -0.90779436
N 0.860276 -0.9609449 1.7870954
O 0.5706052 0.6417127 0.13752341
H 0.60674554 -1.8932563 2.0735497
H 0.5145869 2.4065707 -1.6394825
H -1.8104178 -0.41244018 -1.5537088
H 1.851516 -0.77695894 1.7613709
