11

N 1.8491828 -0.10970735 -1.437591
C 0.59809446 -0.13279708 -0.87047654
N -0.5475578 -0.25174856 -1.4431322
N -1.5019748 -0.071353465 -0.43332055
C -0.8349509 0.09608152 0.65416586
N -1.297876 0.1984371 1.9427638
O 0.5114069 0.081973545 0.4722513
H 2.5426118 -0.64921397 -0.9358925
H 1.805292 -0.35909688 -2.4159799
H -0.8216515 0.89058477 2.5046852
H -2.302577 0.30684036 1.9625263
