11

O -1.7999669 0.6582834 -1.646297
C -1.1585298 0.030137964 -0.866178
O -1.2175177 -1.3157423 -0.605398
C -0.21894398 -1.238427 0.45796317
C -0.04291968 0.2338205 0.137326
C 1.1255265 1.1007683 0.06745214
O 0.09058271 1.2993325 1.0313197
H 0.6284872 -1.895963 0.25052392
H -0.6646002 -1.4600272 1.4277422
H 1.1882445 1.852308 -0.7198916
H 2.0696373 0.7355086 0.46543738
