11

O -0.60875807 0.52196982 -1.61201588
C -1.56747373 -0.79016076 0.17422639
O 1.38645280 -1.12860408 0.48861249
C 0.91729935 -0.10361007 0.05644527
C -0.48340242 -0.05065672 -0.55617327
C 1.75088134 1.18157149 0.08867590
O 1.24804927 2.27001473 0.04961117
H -2.47273283 -0.79617633 -0.43309705
H -1.23839403 -1.81092596 0.39326870
H -1.76813479 -0.29392785 1.13135053
H 2.83621307 1.00050549 0.21909567
