12

N -1.09906336 -0.56024591 -0.78585630
C -1.37323291 -0.93788425 0.40190223
N 0.96903578 -0.55361021 0.46189681
C -0.26417113 -0.52762028 1.31897267
C 0.31311295 0.71809516 0.74578955
C 0.18704465 0.10437243 -0.61188234
N 0.84192990 0.48098793 -1.79540776
H 0.28477375 1.13573810 -2.33173601
H -2.27070378 -1.47993506 0.67553562
H -0.15809304 -0.82308279 2.35630069
H 0.81090065 1.57910228 1.17717198
H 1.75846658 0.86408261 -1.61268690
