12

N -1.5260943 -1.0961876 -1.3429011
C -0.62031573 -0.44949085 -0.5513035
N -0.69165385 -0.6970115 0.7645678
C 0.22087671 -0.09109232 1.5138886
C 1.1956863 0.75300336 0.9961057
C 1.1579603 0.93621206 -0.3824133
N 0.2619134 0.3515333 -1.1694701
H -1.645859 -0.74741954 -2.279405
H -2.3234832 -1.5002666 -0.8786181
H 0.1643004 -0.2860882 2.5839005
H 1.931591 1.2392962 1.6235707
H 1.875078 1.5875117 -0.87792194
