9

N -0.39971634 0.36558237 0.26032693
C -0.82314786 -0.48152691 1.25575938
N 0.89165175 0.89292546 -1.57525599
C 0.56116506 0.04893143 -0.69058249
O -1.66022063 -0.20014412 2.07814491
H -0.81850265 1.28709623 0.21234985
H 1.59893920 0.51231515 -2.19383390
H -0.31086792 -1.46170825 1.22446659
H 0.96069930 -0.96347091 -0.57137497
