9

N -0.46061024 -0.29392293 0.20301221
C 0.7226185 0.29417524 -0.019932944
N 1.4377279 0.015013011 1.0261502
C -1.5148375 -0.22389677 -0.68161213
O -2.5951967 -0.7387519 -0.519032
H 0.9974149 0.8745417 -0.8990746
H -1.2693399 0.36852682 -1.5911701
H 0.29087174 -0.60757977 1.3183832
H 2.3913512 0.31189463 1.1632761
