11

N 0.2962049 0.3071785 2.0002453
C 0.11535541 0.10365857 0.76288813
C -0.6343638 0.8453722 -0.3402113
N -0.4271438 0.08359835 -1.5732572
C 0.29296473 -0.9167895 -1.2486984
N 0.6492306 -0.9905521 0.087599225
H -0.1741523 1.1590534 2.3012156
H -1.7060133 0.9126365 -0.11718238
H -0.26081246 1.8690035 -0.45760003
H 0.6267263 -1.6820339 -1.9423021
H 1.2220038 -1.6911259 0.5273031
