11

O 0.89292306 2.46363128 0.97402544
C 0.06389399 -0.69928050 -0.69665411
C -0.00604661 0.35772227 0.34934524
C 0.89034931 1.56087733 0.17407615
N -0.78075960 0.24417224 1.35041189
C -0.88770564 -1.79554081 -0.68497888
N 0.22690667 -2.14328073 -0.24156531
H 0.59398414 -0.44242731 -1.61323926
H 1.54542765 1.57331191 -0.72015627
H -0.65704079 1.06522292 1.95479278
H -1.88193210 -2.18440882 -0.84605799
