9

O 0.13161077 -0.92043483 -2.0267107
C -0.2695864 -0.6191326 -0.45919532
N -0.09845546 -1.8334472 -0.7650848
O 0.50123054 -0.1929254 2.1819332
C 0.023322897 0.70322967 1.5165337
C -0.40459293 0.5761259 0.12734601
H -0.11646924 1.720387 1.940031
H -0.8637303 1.3871181 -0.42260054
H 1.0966703 -0.8209208 -2.0922523
