11

C -0.71844249 -0.09020646 -1.34281691
C 0.52973006 0.65001590 0.49902072
O 0.14627301 -0.65559536 2.48238500
C 0.52946545 -0.61429500 1.34118636
O 0.53386114 0.37075068 -0.87391379
H -1.01385247 -1.03224215 -0.85670662
H -1.50618837 0.65803607 -1.17338215
H 0.95576779 -1.50001564 0.82236034
H -0.61266399 -0.26277396 -2.41444019
H -0.30865986 1.29556429 0.80135458
H 1.46470964 1.18076156 0.71495244
