11

C 0.3267352 -0.3827723 1.0683703
C -0.7138207 -0.58662564 -0.04161434
O -1.9490205 -0.15 0.031840265
C 0.5307897 0.68009603 -0.81259394
O 1.3238552 0.22555691 0.25745985
H -0.07733831 0.31195 1.8172318
H 0.6902973 -1.3008039 1.539817
H 0.91143644 0.37064373 -1.7881829
H -0.47360688 -1.4549962 -0.68385494
H -0.9349351 0.5168259 -0.6074301
H 0.36560798 1.7701253 -0.7810432
