12

N 1.15629840 0.82936996 -1.32978766
C 1.09957669 -0.28768234 -0.70162517
N 0.12835055 0.17996561 1.49687301
C -0.07078083 -0.53114595 0.23919925
C -1.22786072 0.09939550 -0.53186466
C 0.22974133 1.72021348 -0.88287412
N -1.00423456 1.20387039 -1.14605225
H 0.95398416 -0.16888718 1.97556157
H 1.83154000 -1.06159056 -0.91880313
H -0.24377901 -1.61675207 0.32798556
H -0.66092666 0.02672982 2.11848196
H -2.19190898 -0.39348693 -0.64709408
