12

N -1.2308427 -0.22847575 -1.1611251
C -0.7468736 -1.2541752 -0.16650943
N 0.71579176 -1.5048913 -0.371898
C 0.43139893 0.74599427 0.14373727
C -0.55122477 0.8407717 -0.9787052
C 1.3246869 -0.38480768 -0.2227378
N -0.6879619 -0.44228193 0.9933657
H -1.5568613 0.021616349 1.2505751
H 0.8060171 1.6302766 0.6551745
H 2.3989158 -0.28564894 -0.34800968
H -0.22337502 -0.8676873 1.7949028
H -0.6796713 1.7293093 -1.5887704
