11

O -0.7543313 -1.2566506 -1.5590433
C -0.1887366 -0.13149178 -0.958638
C -0.89995575 0.4249667 0.25844717
C 1.3011748 0.15248902 0.63383967
C 0.020395426 0.63075 1.2005302
N 1.2079412 -0.3209895 -0.5510915
H -0.17755328 0.6420192 -1.7394768
H -0.68937176 -1.9932044 -0.93689865
H -0.10597271 1.0453203 2.1929517
H 2.248 0.17331123 1.1684585
H -1.9615898 0.6334798 0.29092115
