11

O 0.19060975 -1.9093487 1.1285731
C 0.02884505 -0.7648814 0.41349918
C -0.8755317 -0.36750975 -0.53623676
C -0.50216454 0.965231 -0.90763587
C 0.5965114 1.3141714 -0.17669806
N 0.91609955 0.24109766 0.6347363
H -0.5086408 -2.519261 0.8670358
H -1.7011225 -0.94946253 -0.92229635
H -1.0052024 1.5820607 -1.6379637
H 1.1825954 2.2197258 -0.15408906
H 1.6780007 0.18817693 1.2910756
