11

O 2.2130606 0.2088688 -0.23667881
C 0.13226037 -0.4065413 0.9902726
C -1.2484695 0.15800405 -0.69485724
C -1.1970047 -0.41672015 0.5774607
C 0.8599809 0.18696126 -0.057070192
N -0.022506407 0.50377977 -1.1502064
H 0.5584736 -0.7689054 1.9166468
H 2.4428065 -0.46240813 -0.8921372
H -2.1245656 0.39882967 -1.2825426
H -2.043558 -0.7697337 1.1511788
H 0.4295212 1.367865 -0.32206622
