9

N -2.1945853 0.31176597 -1.4383303
C -1.2754426 0.45247075 -0.7518798
C -0.10317665 0.6220864 0.08770974
C 0.4701409 -0.5785151 0.7563371
N 1.1740543 0.05547855 -0.34257892
H -0.033849202 1.5918627 0.57185304
H 0.92693084 -0.45775878 1.7354089
H -0.026841639 -1.5290695 0.58654696
H 1.0627694 -0.46832085 -1.2050667
