9

N -0.27850614 -1.44540948 0.51175370
C -0.80838410 -0.23767503 -0.16724073
C -0.17520981 0.91763042 0.14472106
C 0.20487850 -1.29074125 -0.80276772
N 0.35382721 1.94451488 0.50951143
H 0.92250808 2.47314068 -0.14117879
H 0.36964210 -1.20998708 1.27074488
H -1.83954599 -0.21860754 -0.49515813
H 1.25079019 -0.93286545 -0.83038568
