10

N 1.479868 0.49886197 0.923998
C 0.22447145 0.6245104 0.37817827
O -0.44527853 1.6311799 0.44486567
N -0.23169264 -0.54719114 -0.23580047
C -1.4585267 -0.6401729 -0.87180513
O -1.8584627 -1.6704267 -1.3596711
H 1.8825927 1.3728651 1.2264233
H 2.1268713 -0.16933665 0.53501105
H 0.28659078 -1.4124444 -0.16318154
H -2.0064335 0.31215423 -0.87801766
