10

N 1.4810178 0.49921077 0.92153555
C 0.22415948 0.6217577 0.37591043
O -0.44580737 1.6290557 0.4436557
N -0.2310077 -0.54735464 -0.23381066
C -1.459297 -0.640453 -0.8703345
O -1.857789 -1.6700019 -1.355008
H 1.8768638 1.3756247 1.226296
H 2.1318357 -0.1680499 0.5356546
H 0.287536 -1.411013 -0.16418363
H -2.0075119 0.31122315 -0.8797152
