10

N 0.28526019 0.28206083 0.13496764
C 0.24207788 1.50008790 0.71889857
O 1.48451135 1.69116149 1.20305580
N -0.59050225 -1.59510948 -0.90059057
C -0.82614172 -0.28278331 -0.53641308
O -1.83473805 0.32007475 -0.79253130
H 1.47831008 2.55152900 1.63601651
H 1.16004001 -0.23915769 0.11715308
H 0.01307474 -2.16324429 -0.32659261
H -1.41189208 -2.06461940 -1.25396366
