10

O -1.48396763 2.37776809 -0.50520445
C -0.34805606 -1.38830448 0.70626661
C 0.92028285 -1.30787912 0.23656893
N 1.09653369 -0.06930161 -0.34542265
O -0.97539108 -0.22240542 0.43066785
C -0.39681394 1.87674204 -0.65781085
C -0.04730649 0.51922830 -0.20106264
H -0.92653632 -2.13746781 1.22204036
H 1.71557977 -2.03538948 0.27071531
H 0.44567503 2.38700956 -1.15675841
