10

O 0.20483208 2.8376338 0.13057841
C 0.08183184 0.50050884 -0.23464136
C -0.10432037 -1.6037362 -0.17487332
N 0.12374825 -0.5322948 -1.0138315
O -0.1544829 0.20953579 1.0576183
C 0.26152295 1.9076331 -0.63630086
C -0.27226087 -1.1373649 1.0861031
H -0.4664545 -1.5846434 2.0474243
H -0.12787333 -2.6166382 -0.5442096
H 0.45345688 2.019366 -1.7178675
