10

O -1.5854414 0.6990532 0.08528345
C -0.8061313 1.4522226 0.63609487
C 0.29030272 -0.8761082 -0.3596911
N 1.0366509 0.0073449058 0.20352207
O -0.77155715 -2.682654 -1.6560818
C -0.106906936 -1.8831561 -1.0595486
C 0.61766964 1.1271627 0.7079107
H -1.1294566 2.4008245 1.0933983
H 1.1097107 -2.0350633 -0.8194676
H 1.3451594 1.7903734 1.1685795
