11

O -1.119014 1.2533435 -0.4878419
C -0.6136688 0.73190224 0.7171193
C 0.4630181 -0.2990438 0.4549833
C 0.4255117 -1.1357642 -0.73986155
O 1.2824569 0.005654826 -0.66937083
H -0.34424558 1.4279977 -1.0415442
H -0.19458929 1.5249621 1.3574303
H -1.4474732 0.2705733 1.2556934
H 1.0124407 -0.6509906 1.3293025
H -0.40873155 -1.0348715 -1.4296073
H 0.9442953 -2.0937634 -0.7463031
