11

O 1.3058512 -0.8802756 -0.32529053
C 0.16949455 0.49759668 1.1732262
C 0.18202485 -0.304087 -0.07286587
C -0.8867865 -0.3357748 -1.0985806
O 1.2843916 1.1956767 0.7507511
H -1.8439246 -0.60418016 -0.6425917
H -0.75953054 1.086114 1.2609422
H 0.27983186 -0.11816241 2.0878806
H -0.62523746 -1.0019889 -1.9214059
H 1.8744241 -0.22230893 0.26746842
H -0.980539 0.6873904 -1.479534
