10

O -1.4139259 1.4682931 -0.108407676
C 0.96478736 -0.42874902 0.9393637
N 0.015916428 -0.14485553 -1.1019738
C 1.0851806 -0.55334973 -0.535248
C -0.88996613 0.1886381 0.00044588072
N -0.17687306 0.052992623 1.2601839
H 1.9482577 -0.9187139 -1.0845277
H -1.5883921 1.6220068 -1.044985
H -1.6671493 -0.59592825 0.0032489733
H 1.7221643 -0.6903341 1.6718997
