10

O -0.36661082 1.97603223 -0.35737426
C 0.71135472 -1.08177485 -0.30666102
N 0.16264114 -0.22312487 -1.07672928
C 0.37549219 -0.79006685 1.10988490
C -0.63355410 0.62569950 -0.18636941
N -0.37624064 0.24264057 1.19236077
H 1.34196314 -1.88907627 -0.66818373
H -1.68898161 0.36722646 -0.38342363
H 0.71089259 -1.34709361 1.97930042
H -0.23695665 2.11953759 -1.30280508
