11

C 0.608535 0.9970856 -0.0693201
O 0.61776805 0.33210403 1.1781778
C -0.06672171 -0.8618182 0.81381464
C -0.7440272 -0.2913149 -0.4382827
O -0.6244703 -0.82057494 -1.6401917
H -1.6374083 0.31441823 -0.19774437
H 0.62321573 -1.6653384 0.5232318
H 1.6010127 0.9811439 -0.55490834
H 0.13769718 0.1957475 -1.2163974
H 0.22290169 2.0171568 -0.00765618
H -0.73850286 -1.1986095 1.6092763
