11

C 0.98368305 -0.4959112 0.34378904
O -0.103188574 -0.9950106 1.1366538
C -1.0368099 -0.1161522 0.49229145
C 0.10946194 0.6556572 -0.1849356
O 0.05994526 0.91995245 -1.557423
H 0.32345468 1.6123906 0.2967516
H 1.8587844 -0.24115063 0.9522567
H 1.285826 -1.2062196 -0.4425953
H -1.6667724 0.42055234 1.2107667
H -1.6816217 -0.6493166 -0.22421367
H -0.13276307 0.09520804 -2.0233414
