11

C -1.01390316 0.07841017 0.54467344
O 0.12166079 0.81893166 -1.60935453
C 0.90908461 -0.63112650 0.32710194
C 0.20251401 0.61911878 -0.22748510
O -0.19901478 -0.90693795 1.19604869
H -1.77331397 -0.37823241 -0.10969564
H -1.51037379 0.74549546 1.25855391
H -0.22508331 0.01412094 -2.01735946
H 1.05104914 -1.41949787 -0.42956534
H 1.84522908 -0.49161936 0.87946913
H 0.59215116 1.55133691 0.18761309
