12

O 1.40527471 0.39439429 -0.70328440
N -0.09122820 2.16182516 -0.10356927
C 0.21616930 0.96503030 -0.31276398
C 0.88045283 -0.94357862 -0.47888020
N -1.14631614 -0.75360805 1.05196843
C -0.51121249 -0.36158429 -0.18066739
H 0.69970331 2.78359317 -0.27561848
H -0.56638697 -0.49390852 1.84428936
H 1.36251214 -1.41275700 0.38308329
H -2.02558244 -0.25954112 1.15485840
H -1.20902723 -0.51543383 -1.00948540
H 0.98564124 -1.56443168 -1.36993034
