12

O 1.1256582 -0.48083755 -1.0614338
N 0.061963458 1.6310114 -1.4242541
C 0.59266144 -1.2410518 0.05836775
C -0.5706663 -0.24519232 0.19733937
N -0.79802155 0.3354742 1.496403
C 0.18223064 0.50495774 -0.88749295
H 0.8023517 1.7977101 -2.1067538
H 0.3478983 -2.262343 -0.23751868
H 1.2889975 -1.234982 0.9013208
H 0.028908204 0.836735 1.8069814
H -1.5503867 1.0126822 1.4404234
H -1.5115952 -0.6541639 -0.18338288
