10

N -2.626853 0.99612504 -1.9829683
C -0.74314344 0.9004501 -0.25980154
C -1.7466965 0.99682915 -1.2234051
N -0.37462193 -1.320441 0.5685063
C 0.81773865 -0.8434711 0.6147256
C 1.1299236 0.45827177 0.107633
N 0.21669932 1.5667531 0.10759995
H 1.6647868 -1.3673245 1.0666423
H -0.47269452 -2.1350744 1.1819435
H 2.134861 0.7478814 -0.18087588
