10

N 0.6030234 -0.17402883 3.3048334
C 0.3515904 -0.029677235 2.1853693
C 0.042494196 0.1347793 0.7987177
N -0.65322924 1.1227227 0.2847084
C -0.69962853 0.8647119 -1.0542212
C -0.024411414 -0.29154518 -1.349736
N 0.45015767 -0.7540864 -0.15462025
H -1.2187855 1.5263371 -1.7347078
H 0.15497461 -0.8107328 -2.277963
H 0.9938143 -1.5884806 -0.002380901
