10

C 0.7629143 -0.71577096 0.11428168
C -0.9344715 0.74606264 -1.0771515
N 0.23764035 -1.1997062 -1.2136408
N -0.6548448 -0.4154366 -1.5144624
C -0.036920562 -0.18592004 1.1857508
C 0.44839618 0.7466661 0.36181512
H -0.49553192 -0.42251936 2.1307838
H -1.9408133 0.95269775 -0.71569276
H 1.6995605 -1.2235934 0.32742423
H 0.91407084 1.7175201 0.4008917
