10

O 1.1307323 0.8688777 -1.6030984
C 0.8039236 0.1970138 -0.4219777
C -0.3305475 -0.889025 1.8174177
O -1.2111951 -0.3931738 0.96780306
C -0.6942346 0.15315527 -0.23262537
O -1.4908601 0.54132104 -1.033267
H 1.1808778 -0.83770376 -0.41094485
H 1.2659755 0.7035715 0.4355076
H -0.9916529 -1.2480272 2.635792
H 0.33698094 0.90399057 -2.154607
