10

O -0.016302224 -1.378091 -0.9564368
C -0.40384397 -0.38712165 -0.051607084
C 0.6857979 0.0072624926 0.9439467
O 0.6318616 1.3870149 0.47188532
C -0.26129395 1.0753154 -0.5036327
O -0.69531256 1.7727548 -1.3650726
H -0.65472066 -1.3953885 -1.6824043
H -1.3813272 -0.583992 0.41048363
H 1.6542739 -0.44434536 0.72682977
H 0.44086695 -0.05340925 2.0060084
