11

N 1.0781848 0.2220252 -1.6779008
C -0.5852778 -0.6411997 -0.405723
C -0.042935677 0.4222865 1.5398955
C -0.76594484 -0.6030637 1.0628784
C 0.41161802 0.38272393 -0.5681423
O 0.6852488 1.0801778 0.5244864
H 0.10874836 0.83607143 2.5233738
H 1.6759536 0.92786664 -2.092881
H -1.4903624 -0.51182574 -1.0009451
H 0.34138677 -0.89133227 -1.5690032
H -1.4166195 -1.2237301 1.6639616
