11

N 0.56133205 -1.41328 -1.3637652
C 0.17683503 -0.440178 -0.44927356
C -1.0221828 0.103649415 -0.10696695
C -0.712031 1.1324786 0.8566733
C 0.628728 1.120035 1.0134767
O 1.1883496 0.15440354 0.21249898
H 1.4299557 -1.8625283 -1.107996
H -0.16498324 -2.093516 -1.5383961
H -1.9949504 -0.17334588 -0.48357928
H -1.4142357 1.7840589 1.3561959
H 1.323183 1.6882229 1.611132
