13

C -0.15106995 0.062003817 0.90322703
N -0.24334861 0.04485007 -0.6321149
C 0.9914345 -0.79475236 1.0981157
O 0.89909667 -2.091689 0.51621497
C -0.65583473 1.3140949 -1.2248493
O -0.69953644 0.91948646 1.5396341
H 1.4502445 -0.7699602 2.087746
H 0.13315122 2.051211 -1.050585
H 0.4105726 -2.6544693 1.1284395
H -0.7972048 1.1879082 -2.3008525
H 0.9607625 -0.17098087 -0.3132963
H -0.72224855 -0.7724402 -0.99162537
H -1.576019 1.6747372 -0.7600534
