13

C -1.3962066 -0.6962917 -0.78689116
N 0.7274681 -0.0953105 0.17304781
C 1.019172 1.140298 0.92841357
O -0.71244293 -0.39222398 -1.9759886
C -0.8021519 -0.5716942 0.42247978
O -1.0754695 -0.68663186 1.609793
H 0.46489647 1.9583393 0.46393344
H -2.4460764 -0.95663166 -0.8608732
H -0.67264825 -1.2037657 -2.5021288
H 1.3242823 -0.85501087 0.4993257
H 0.82422847 0.025225073 -0.8402894
H 2.091314 1.3451533 0.9238043
H 0.6536343 0.9885448 1.9453737
