12

C 0.35073669 0.59301469 0.34786688
C -0.66050606 -0.11775224 -0.37095096
N 0.10522534 1.48675436 1.30885435
N -0.14462627 -0.55326059 -1.66322887
C -0.33480713 -1.55794412 -0.70934298
O 1.60054136 0.43271991 -0.00939731
H 0.84685980 2.08613001 1.64075821
H 1.48380090 -0.01183799 -0.91368475
H 0.51878822 -2.04537660 -0.21257757
H -0.84554940 1.70355628 1.55785373
H -1.70151009 0.18701299 -0.21793368
H -1.21895345 -2.20301704 -0.75821689
