11

O 0.7775414 0.25644684 1.6229497
N -0.5153287 0.18122758 -1.4521308
C 0.74637914 1.1772034 0.5150684
C 0.029498577 -0.7470502 0.90558606
O -1.1681676 -1.0235281 -1.7253166
C -0.036937404 0.17408533 -0.28458467
H -1.4726863 -0.88902974 -2.6305444
H 1.7508404 1.4097289 0.1425118
H 0.5984361 -1.6725272 0.76160425
H 0.22143812 2.1059203 0.76257104
H -0.9310135 -0.9724772 1.3822856
