11

O 0.07374890 -0.15241595 1.80987065
N 0.15268082 0.49517040 -1.46239046
C -0.44490176 -0.85989452 0.66459315
C 0.10658640 0.21742847 -0.23242789
O -0.48885168 -0.49151495 -2.21548636
C 0.62340998 0.90512277 1.00014894
H -1.53722170 -0.94396567 0.68490126
H -0.37564878 -0.16556845 -3.11615433
H 0.00152878 -1.85376173 0.54688119
H 1.71382376 0.97162636 1.09171316
H 0.17484523 1.87777339 1.22835096
