9

O 0.41191098 -0.9334478 -1.7468332
C 0.37629136 -0.33106688 -0.53458005
N 1.6277275 0.22813317 1.3165427
N 1.4487969 -0.17477486 0.24150832
C -0.77449334 0.10386093 0.19990712
N -0.5859773 0.5570653 1.3860208
H -1.4364372 0.83540666 1.8661312
H -1.7368068 0.008381404 -0.30308646
H 0.66898805 -0.29355788 -2.4256105
