9

N 0.16647977 1.0897468 -1.6006502
C 1.0569367 -1.0415741 0.8869895
O -0.08780776 -1.5906178 0.51659894
C -1.1487559 1.0108259 0.35621488
O 1.0993359 0.1757273 0.3343814
C 0.0582634 0.7335923 -0.40340734
N -2.0977833 1.2526264 0.96888095
H 1.0842683 0.8402042 -1.971877
H -0.13093688 -2.470531 0.9128688
