17

C -1.34937786 1.27186460 1.45738729
N -0.43227638 -1.84907470 0.12019608
C -0.30031783 -0.58576807 0.23615500
O -1.21043569 -0.08139778 1.07710641
N 0.67132032 0.19815338 -0.34850323
C 0.71627029 1.62259536 -0.63402080
C 0.48242468 -2.58490104 -0.70980658
H 0.20908960 -3.64202286 -0.64070816
H -2.16964009 1.27259517 2.17692939
H -1.62632125 1.91208668 0.61232417
H 0.42631064 -2.31925568 -1.77776379
H 1.53454149 -2.51248867 -0.38614727
H -0.45051359 1.65177308 1.95677906
H 0.75729340 2.21774654 0.28453909
H -0.12666670 1.96276374 -1.25015925
H 1.64090933 1.81969752 -1.18237088
H 1.22738995 -0.35436701 -0.99193660
