17

C -1.366531 1.1758001 1.5206989
N -0.6502332 -1.7684842 -0.2646652
C 0.27087036 -2.4688146 -1.1179696
O -1.3356637 -0.10008249 0.91538215
N 0.727324 0.16290924 -0.23632723
C -0.39153728 -0.5719155 0.0932495
C 0.9680968 1.5962296 -0.2503613
H 1.2925466 -0.34212255 -0.9100965
H -2.2640498 1.1643113 2.1411016
H -1.4626688 1.9806377 0.7833336
H 1.9697404 1.7581037 -0.6565648
H -0.49911803 1.3427114 2.1698637
H 0.9623413 2.016872 0.76090866
H 0.37760854 -2.0215726 -2.1193838
H 1.2762985 -2.5929477 -0.68133026
H -0.12674804 -3.4764357 -1.2715682
H 0.2517232 2.1448004 -0.8762709
