17

C -2.4830961 -0.9269193 0.59695125
N -1.3237374 -0.4255177 -0.11512338
C -0.26382083 0.069769144 0.6239775
O -0.34769997 0.21665871 1.835152
N 0.8569165 0.42112485 -0.09527358
C 2.0666792 0.76134413 0.6245717
C 0.93678784 0.34871542 -1.5382395
H -2.2702444 -1.8337957 1.1783866
H -2.8348713 -0.16230506 1.2937753
H -3.2765784 -1.138244 -0.12315008
H -1.0895947 -0.9282385 -0.9575889
H 2.8548584 0.01241888 0.46233818
H 1.8301159 0.80283415 1.6874474
H 2.4486992 1.7376554 0.30207154
H -0.017873716 0.6393259 -1.988179
H 1.6964582 1.0556504 -1.8855804
H 1.2170019 -0.65047646 -1.9015367
