17

C 1.7490767 0.71514195 -1.8278524
N 0.49616796 0.20085947 -1.3131368
C 0.24112415 0.17727791 0.027713832
O 0.9908523 0.8059386 0.84362507
N -0.7603651 -0.44657996 0.57706606
C -1.8384311 -1.0697871 -0.14041376
C -0.14612515 0.31880587 2.4167693
H 2.5920627 0.030933645 -1.6641285
H 1.9720106 1.6569035 -1.3229287
H -2.6616445 -1.2682985 0.5580269
H 0.35723582 1.2133651 2.7771409
H -1.2146683 0.35284927 2.6066687
H -1.5526143 -2.0369112 -0.5834022
H -2.2401786 -0.42837012 -0.9387144
H 0.3239975 -0.6037702 2.7319362
H 1.6459227 0.9034775 -2.8988228
H 0.045576133 -0.52183545 -1.8495481
