11

N -0.6972841 0.40519565 1.9839151
C 0.020092407 -0.26169062 1.0146881
O 0.73729265 -1.2139341 1.244694
N -0.12398318 0.285126 -0.2522761
C 0.52623135 -0.2322577 -1.364674
N 0.4052603 0.3507075 -2.4867787
H -0.7291974 -0.08566481 2.865686
H -1.5503167 0.8779558 1.7250385
H -0.6178035 1.1556195 -0.3938177
H 1.0967625 -1.1341457 -1.1389533
H 0.9329457 -0.14691123 -3.1975222
