11

N -0.17504820 -0.51147785 2.24759010
C -0.29332155 -0.01754903 1.08495616
O -1.14269574 1.01013744 0.87272440
N 0.35659107 -0.39288154 -0.07496660
C 0.21475827 0.18132769 -1.32911142
N 0.88876431 -0.27519625 -2.30037576
H 0.49005181 -1.27897384 2.28420652
H -1.53158508 1.19282039 1.74286629
H -0.49570227 1.00832223 -1.35642102
H 1.01262694 -1.15828001 -0.02189600
H 0.67556047 0.24175107 -3.14957298
