11

C 0.051651742 -0.30199873 -1.3755962
C 0.0003656783 -0.07648532 2.3744402
C 0.8006302 -0.13809714 -0.13253966
C 0.3269288 -0.29622483 1.0598027
O -0.44869468 -1.3657824 -1.697501
N -0.012268228 0.8322175 -2.1508918
H -0.36142233 0.70752394 -3.0887654
H -0.20235349 0.92193747 2.7599216
H -0.15655302 -0.915266 3.0458436
H -0.6486168 -0.9389779 1.1929449
H 0.65033215 1.5711533 -1.987659
