11

C -0.7312566 -0.17264259 -2.3154993
C -0.16104469 -0.12319807 -0.9694318
C 0.32247886 -0.08888779 0.1325439
C 0.9799153 -0.09732847 1.4401981
O 2.087901 -0.5619827 1.613306
N 0.24326515 0.47300243 2.4381669
H 0.008033149 0.14715792 -3.0540159
H -1.6054296 0.477049 -2.3985777
H -1.0345111 -1.1950356 -2.5597541
H 0.60950273 0.40543896 3.374578
H -0.7188543 0.73642695 2.2984855
