11

C -1.1858041 -0.7000677 -1.1564173
C 0.5619726 0.7000689 1.5992783
N 1.5630772 0.8094818 0.77373487
C 1.1675507 0.26441026 -0.52119595
C -0.1267532 -0.09049575 -0.30946538
O -0.5096461 0.23667222 0.99436766
H 0.4953671 0.9830746 2.6410913
H 2.3872433 0.36673802 0.1297242
H -1.5206261 -1.6641735 -0.75691634
H -0.77076215 -0.859769 -2.1533237
H -2.061619 -0.045939595 -1.2408777
