11

C -0.33916762 -0.2050971 -0.16573636
C 1.3716444 0.7865218 0.7163997
N 0.96773875 -0.19107175 1.504921
C -1.3182211 -0.31497118 -1.2773163
C -0.1574507 -0.89943874 0.9970433
O 0.6150946 0.84187835 -0.33368623
H 1.4119426 -0.41535303 2.3832674
H -1.9442812 0.5804401 -1.375217
H -1.9682974 -1.1629637 -1.0559329
H 2.194899 1.4747993 0.8504227
H -0.83390135 -0.494744 -2.2441654
