10

O -0.9499999 1.6792701 -1.6207726
C 0.18233663 -0.37242168 1.1513917
N -0.6189199 -0.5554612 -1.1609125
C -0.21346864 0.73050964 -1.5498523
C -0.4695779 -1.0518147 -0.007380413
N 0.77101356 0.73697823 0.97948
H 0.1206431 -0.9067368 2.1075184
H 1.1827048 1.0765127 1.8497273
H -0.8366874 -2.0674102 0.16581509
H 0.83195597 0.73057425 -1.9150147
