10

O 0.9642068 2.0681107 -0.7159753
C -0.81482273 -0.78671294 -0.117938444
N 0.4927502 0.5551397 1.1453949
C -0.35303622 -0.46654677 1.1731853
C 0.67979324 0.9704489 -0.23907429
N -0.20564032 0.01215297 -0.96738195
H -0.54476786 -1.022214 2.0823674
H 1.5911083 0.19173506 0.023431774
H -1.4680887 -1.5960853 -0.4202876
H -0.34150273 0.07397144 -1.9637215
