10

O -2.3865602 0.29803967 -1.3739271
C 1.5061005 -0.6060208 0.60834557
C -1.4093083 0.9198862 -0.65295506
N 1.2556268 -0.38439965 1.8270715
C -0.17015563 0.5300107 -0.48498708
N 1.0279745 0.22544925 -0.42960322
H -1.761515 1.824753 -0.17196041
H 2.162071 -1.3912903 0.21631691
H 1.7711504 -1.0434508 2.4063919
H -1.9953842 -0.37297696 -1.9446927
