13

C 0.027451826 -0.45874155 -1.168189
C -1.4708583 0.39306903 0.8322317
N 0.89190537 0.03571139 1.0003297
O 2.1625025 -0.28573972 0.5279317
C -0.14372909 -8.571272e-05 0.267294
O 1.0057515 0.28452277 -1.8436618
H -2.2004173 -0.41211334 0.68229204
H 0.2629504 -1.5359999 -1.1546069
H 1.8047518 0.19047295 -1.3004279
H 1.8276168 0.2243574 1.6357335
H -1.849337 1.2806394 0.31259453
H -1.3942058 0.6106809 1.8998871
H -0.924383 -0.32677352 -1.691409
