13

C -0.54680425 0.024720171 1.7064223
C 0.025189143 0.16755146 0.3299289
N 1.1370755 0.7849311 0.23239768
O 1.5604955 0.876648 -1.106277
C -0.7191449 -0.41373393 -0.85735047
O 0.059699364 -1.3118509 -1.6093603
H 0.08327102 0.53185666 2.4395442
H -1.5561955 0.44968474 1.7482275
H -0.6283355 -1.0345727 1.9725395
H 2.4173024 1.3082035 -1.0236382
H -1.1004617 0.41518104 -1.4730737
H -1.5852079 -0.97847515 -0.49450797
H 0.85311687 -0.820144 -1.8648525
