13

C -0.4586956 -0.335896 1.5475512
C -0.088286616 1.146864 -0.59983164
N 0.68604803 -1.1129388 -0.44227692
O 1.1958002 -1.0977967 -1.6171845
C 0.06725537 -0.14618142 0.16172539
O -0.5136291 0.94454694 -1.9198695
H -1.5494449 -0.22172509 1.5645704
H -0.2139028 -1.3254875 1.9437387
H 0.099603325 0.279781 -2.2828357
H -0.8363423 1.7650518 -0.09316994
H 0.782228 -2.0006194 0.06438709
H 0.87181264 1.6889707 -0.55669
H -0.042446353 0.41543043 2.229885
