12

N 0.60527350 -1.58344552 0.79974371
C 1.01417133 -0.61252732 -0.01258502
C 0.18427274 0.43553944 -0.41561079
N 0.59694766 1.40366506 -1.31859787
C -1.11204877 0.40047661 0.10704749
N -1.53712389 -0.56078052 0.91985295
C -0.65294024 -1.51011586 1.22444085
H 2.04472702 -0.66710772 -0.36172535
H -0.99405764 -2.30064208 1.88791044
H 1.59500904 1.54090872 -1.38570399
H 0.08497181 2.27368227 -1.29750885
H -1.82920260 1.18034695 -0.14726340
