12

N -0.6031379 0.37838033 -0.8496785
C 0.16788319 1.5018228 -1.0454373
C -0.60985154 0.18538252 0.7795515
N -0.0634754 -2.0575027 -0.3107765
C -0.14478515 -0.7515295 -0.12727475
N 0.95691884 1.7808721 -0.02322879
C 0.65825284 0.9393886 0.9717776
H -0.47190785 -2.7013202 0.3546196
H 0.30276272 -2.4396467 -1.1686606
H 0.06482244 2.1013303 -1.9317734
H 1.218821 0.9248823 1.9021428
H -1.4763032 0.13794044 1.4487387
