12

N -1.614489 -0.2443894 0.92577165
C 0.36308503 0.4611474 -0.22780626
C -0.79612434 0.7166436 0.5109805
N 1.1730253 1.4751186 -0.71649086
C -1.2728872 -1.4910978 0.60201484
N -0.1972214 -1.8619455 -0.08665183
C 0.61134255 -0.88697976 -0.49337497
H -1.938454 -2.28255 0.93684155
H 1.1260523 2.3543522 -0.22228871
H 1.4949269 -1.1858357 -1.056302
H -1.0686435 1.7389791 0.77125883
H 2.1193874 1.2065568 -0.94395274
