11

N 1.8033149 0.3917407 0.8260488
C 0.518781 0.06544323 0.35937083
C -0.63050807 -0.20257051 1.1187277
N 0.23304111 0.3144469 -1.0630668
C -1.0833566 0.19548434 -1.1123346
N -1.5766994 -0.08231516 0.12871782
H 0.5558105 -0.81538147 -0.6532233
H -2.5631979 -0.20744716 0.30918652
H 1.8815736 0.15069705 1.8070384
H 2.544984 -0.04251132 0.2914052
H -1.6837435 0.23241343 -2.0118706
