11

N 1.040015 0.13240263 1.7680937
C 0.37297204 0.06109594 0.5401014
C -0.9705571 0.12724705 0.27202773
N -1.0552506 0.06368403 -1.1107037
C 0.207747 -0.02463956 -1.5860859
N 1.0955062 -0.034485076 -0.6210846
H 2.009923 -0.12579422 1.6468621
H 0.61758256 -0.43005812 2.4946601
H -1.8448848 0.22667716 0.8956703
H -1.9004319 0.086485885 -1.6553159
H 0.42737874 -0.08261568 -2.6442251
