11

C -0.8215889 0.7475829 -0.8343745
C 0.501555 0.6252857 -0.13023229
O 0.49467435 0.6846087 1.2894329
C 0.8683276 -0.5432484 0.68802315
C -0.0557544 -1.6563848 0.8537019
N -0.7732404 -2.555309 0.9669672
H -1.156415 1.7888192 -0.8287311
H -0.72509086 0.42479968 -1.8767772
H -1.5859811 0.1371659 -0.3472512
H 1.3369334 1.1636246 -0.58118796
H 1.9165803 -0.81694406 0.8004291
