11

C -0.5281085 0.333053 1.3477955
C 0.7444432 -0.08870404 0.72161144
O 1.0009805 0.9030764 -1.0600865
C 0.6008775 -0.43845 -0.7301052
C -0.71907085 -0.6794505 -1.3367254
N -1.7647314 -0.9362772 -1.7577145
H 1.2958978 -1.198143 -1.100738
H -0.36597997 1.0724231 2.1355476
H 1.9192635 1.0002137 -0.76538736
H -0.83256984 -0.5978277 1.8593801
H -1.351002 0.63008624 0.68642265
