11

C -0.5849932 0.7540608 -2.2299678
N -0.36982572 -0.47497275 -2.1620035
C 0.7049012 -0.9608773 1.5077084
N 0.0050442144 -0.58402246 0.2995421
C -0.4223054 0.60775757 0.16823614
N -0.9391275 1.1419781 -0.95627296
H -0.45813054 1.3290013 0.9957287
H 0.653721 -0.2014865 2.3019512
H 1.758852 -1.1457549 1.26963
H 0.28511474 -1.8989507 1.886547
H -0.6332509 1.4332668 -3.081099
