11

C 2.0308468 0.5691788 -0.93821347
N 0.7975702 0.5032456 -1.6054525
C -0.2590358 0.07471896 -0.75422555
N -0.11778702 0.01148117 0.4975658
C -1.2647654 -0.3625822 1.3041052
N 2.0734465 -0.5193651 -1.5260341
H -1.0158826 -1.2603099 1.878734
H -2.1727066 -0.55446595 0.71545625
H 2.5789406 1.2389921 -0.28926158
H -1.4676739 0.438996 2.0211656
H -1.1829532 -0.13988951 -1.3038392
