11

C -0.81513299 0.96727950 -0.56505500
C 0.57940076 0.45264536 -0.33432303
O 1.06690474 0.46446571 1.00850486
C 0.85710571 -0.78416919 0.40457482
C -1.08071069 -2.21781512 1.31748185
N -0.19769388 -1.55900564 0.91401836
H -1.16715938 0.66063138 -1.55529217
H 1.33409453 0.74802733 -1.06589955
H -1.50460296 0.58141056 0.19027911
H -0.82293202 2.06038811 -0.52103728
H 1.75072641 -1.37385750 0.20674804
