11

C -0.8213155 0.7458333 -0.8357425
C 0.50089604 0.6261623 -0.1292463
O 0.4914219 0.68315905 1.2888688
C 0.8699028 -0.5434073 0.69050926
C -0.05439035 -1.6557349 0.853534
N -0.7737251 -2.5523007 0.96315163
H -1.1558137 1.7878542 -0.8327708
H -0.72402346 0.4204726 -1.8767813
H -1.5866631 0.13608034 -0.34700352
H 1.3357991 1.1666338 -0.57808673
H 1.9179116 -0.8147522 0.80356747
