11

C -0.114828266 -1.9703029 -0.2904262
C -1.1544137 0.72604877 -0.4169952
C 1.1803564 0.107077345 0.5883092
O -1.313216 -0.02609433 0.7814036
C -0.16762395 -0.2646107 0.034194656
N -0.19252925 -1.4274422 -1.3613286
H 1.1360102 1.1173865 1.0041795
H -1.8323395 0.47025463 -1.2268167
H -0.9396631 1.7842562 -0.26942584
H 1.9224315 0.078515515 -0.21310101
H 1.4758161 -0.5950886 1.3700067
