11

C 0.70070904 0.86414784 0.94157636
C -0.75563985 -2.3467484 1.2450029
C -0.2292876 -0.088806935 -1.307126
O -0.70579916 1.0628028 0.84022117
C -0.1596818 -0.060046744 0.19749324
N -0.47690096 -1.2931962 0.80601776
H 1.3154719 1.5722737 0.38834772
H 0.03747395 0.89306456 -1.7048526
H 0.46064603 -0.83914006 -1.7042409
H -1.2425494 -0.34023637 -1.631752
H 1.0555577 0.57588583 1.9293121
