10

O 0.287798 1.0766584 0.8968359
C 0.28622025 -0.30163977 1.0226502
C -0.10242823 1.015826 -1.2573481
O -0.73584366 -0.14384837 -1.2024158
C -0.2101818 -1.0333153 -0.24093334
O -0.23168449 -2.2030382 -0.4395229
H 1.2750677 -0.7431362 1.2296128
H 0.66060984 1.216721 -0.19726531
H -0.39080128 -0.6255789 1.8272293
H -0.8387564 1.7413515 -1.6388433
