10

O 0.06162948 2.4263723 -0.32224402
C -0.6316044 -1.0086266 -0.48140037
C 0.021386895 1.2025433 -0.18101797
O -0.48885953 0.32057646 -1.0033771
C 0.49195036 1.2007482 1.1356376
O 0.5754751 -1.5798422 -0.12679435
H 1.5873923 1.2893789 1.1512012
H -1.3406091 -0.9711164 0.35657576
H 0.7729118 -1.3053776 0.7824893
H -1.0496727 -1.5746559 -1.3110702
