12

N -0.29283932 -0.835072 1.7685162
C 0.09721451 0.29319882 1.0857596
O 0.847668 1.1334455 1.5323514
N -0.49559686 0.37333855 -0.18406194
C 0.26899132 0.936786 -1.2720457
C -0.06849247 -0.51100653 -1.2578037
H -1.1422167 -1.292465 1.4756023
H -0.101714656 -0.82105553 2.7579877
H -0.27817053 1.6143054 -1.9215803
H 1.2964243 1.2170653 -1.0548353
H -0.86691076 -0.89837253 -1.887714
H 0.735643 -1.2101679 -1.0421762
