11

C -0.119117215 -0.31917298 -0.97836757
C 1.118191 -0.9411234 -0.43234974
O 0.89780897 -0.28578466 0.8183048
C -0.23975752 0.257735 0.22423793
C -1.120509 1.1648036 0.99008614
N 2.0903888 -1.6848953 -0.6589328
H -1.5264006 0.64320296 1.8638555
H -0.6584366 -0.3304627 -1.9136689
H 2.049773 -2.0406375 -1.6155726
H -0.54904836 2.0294871 1.3439549
H -1.9428923 1.5068477 0.35845223
