11

C -0.70060916 1.67993632 -0.52871469
C -0.15035751 0.37383378 -0.10878690
O 0.28453685 0.18204822 1.20135500
C 0.60275750 -1.15105696 0.79670691
C 0.10801802 -0.85456683 -0.57559622
N 1.10808038 -1.99943971 1.55473104
H -0.96580417 1.64954164 -1.58749589
H 0.01108531 -1.38815997 -1.50922561
H -1.59186737 1.91824349 0.06218007
H 0.04059990 2.46865301 -0.36137363
H 1.25356086 -2.87903282 1.05622000
