10

O -0.34504132 1.01166700 1.67379492
C -0.15973923 -0.07896957 0.82939269
C 0.85529070 0.01893453 -0.26734216
C 0.24353215 -0.39923426 -1.36821671
N -1.13941837 -0.70383108 -1.08980863
N -1.39249961 -0.49177134 0.11502347
H 0.07835567 -0.93126070 1.48051384
H 1.88301145 0.32498914 -0.13634505
H 0.60420079 -0.51895076 -2.38140675
H -0.62769218 1.76842708 1.14439458
