10

O -0.9012743 0.9448671 1.4963435
C 0.83542264 -0.26526827 0.18722777
C -0.5905752 -0.07699807 0.6041004
C 0.81853586 -0.35979968 -1.1363345
N -0.5226857 -0.17533413 -1.6362741
N -1.3113474 0.025035098 -0.6883792
H -0.6475209 1.7887386 1.1009549
H 1.6733994 -0.35237095 0.8634287
H -0.97012496 -1.0030038 1.0574253
H 1.6161703 -0.52586585 -1.8484927
