10

O -0.067688555 -0.12926438 2.1443446
C 1.0015899 -0.55926687 -0.03803657
C 0.08439394 -0.31767282 0.86435807
C 0.43143454 0.42922047 -0.94531
N -1.778771 0.2632684 -0.5421578
N -0.8584367 0.43199894 -1.3855879
H -2.6281984 0.031941373 -1.0770044
H 1.096854 1.1054466 -1.481397
H 0.78697646 -0.14467137 2.607753
H 1.9318458 -1.1110004 -0.14696197
