11

C 0.59683454 0.73350173 2.2436335
C 0.30470705 0.16690594 0.9269789
C 0.074986346 -0.31465873 -0.15135577
C -0.14732063 -0.96922404 -1.440722
O 0.32450587 -2.0535226 -1.7143637
N -0.9393812 -0.2629046 -2.2977371
H 0.46592537 -0.02334853 3.0212057
H -0.062661745 1.5746206 2.4664845
H 1.6321143 1.085297 2.282132
H -1.0386281 -0.6230771 -3.2339106
H -1.2110816 0.68641055 -2.1023452
