11

O -0.34293544 -0.85288805 -0.52964985
C 0.35945833 1.2714453 0.53134
C -0.87044626 -0.032527976 -1.581179
O 0.9649282 1.5663795 1.629809
C 0.26727408 -0.27225676 0.50424916
N 0.7735823 -0.9237893 1.4673934
H -0.08017632 0.5479558 -2.0622702
H 1.2024815 0.72459704 2.1311355
H -1.6406745 0.64355654 -1.2029524
H 0.6703321 -1.9303727 1.4001471
H -1.303824 -0.74209964 -2.2880228
