11

O -0.6799294 -0.7856676 1.7628593
C -0.78405255 0.8844469 -0.87797797
C -0.16328514 0.22637746 1.0975567
O 0.60733604 0.72143966 -0.99017197
C 0.8171925 -0.120465584 0.06406186
N 1.6118282 -1.1075906 0.15968877
H 2.208673 -1.1775525 -0.66549104
H -0.2854621 -1.6173401 1.4282423
H -0.8667778 1.0659944 0.5234897
H -1.3535656 0.04581888 -1.2785684
H -1.1119574 1.8645389 -1.2236892
