11

O -0.24870011 -1.5307359 -0.69205654
C 0.19795607 -0.9386897 1.3503532
C 0.01913147 0.8031171 -0.05868508
O 0.7095402 0.22283803 1.0405202
C -0.22319038 -0.22639453 -1.1678141
N -0.2528298 2.02166 -0.10015402
H -1.1633956 0.08704919 -1.6446898
H 0.920042 -1.4666861 1.9953761
H 0.5865125 -0.096949786 -1.9014616
H 0.0699405 2.5203214 0.7283084
H -0.61500686 -1.3955299 0.45030344
