11

N 1.2322351 -0.8526291 -1.1721128
C -0.36443195 0.17518409 0.7441828
O -0.8971689 -0.42521128 -0.39097068
N -0.11729487 -0.55413944 1.7440187
C -0.01713069 -0.9922961 -1.2570449
N -0.24178098 1.5243124 0.5605679
H -0.15392976 2.097056 1.3855462
H 0.21036269 0.0021294206 2.5274355
H -0.5895301 -1.5366882 -2.0161402
H 1.6896526 -1.3668476 -1.9175478
H -0.750983 1.92913 -0.20793474
