12

C -0.20416856 -0.96423895 -1.13917809
N -0.95568483 0.25830017 -1.35345129
C 0.23646146 0.30968318 -0.51178581
N 0.00511738 0.31783174 0.89759531
C 0.73391316 1.06216303 1.62759582
O -0.70479527 -1.96194223 -0.33496736
H -1.79553416 0.24893684 -0.77367936
H 0.29815750 -1.36931395 -2.01108611
H -0.76263418 -1.59484082 0.56023695
H 1.06178159 0.91641873 -0.89176073
H 0.58259755 1.04841514 2.70613050
H 1.50478833 1.72858705 1.22434984
