12

C 0.608351 0.14944822 -0.14600222
N 0.34119692 0.9885289 -1.310831
C 0.15416417 -0.44532117 -1.4307657
N -0.41668072 0.1175868 0.8480986
C -0.07375383 0.1139617 2.0730317
O -1.1102209 -0.98279095 -1.5032259
H 0.8439794 -0.95833 -2.0922925
H -0.56681067 1.4445277 -1.2151368
H -0.8503611 0.057968263 2.8346539
H -1.54435 -0.7872451 -0.65895504
H 0.9690214 0.174647 2.4045644
H 1.6454642 0.12701876 0.1968613
