12

C -1.1228056 -1.015974 -1.7000555
N -0.99920976 -0.58675003 -0.32100305
C 0.057544827 0.020648107 0.009859899
N 0.24581093 0.46998364 1.312582
C 1.3531206 1.1500641 1.7464331
O 1.5058857 1.5446151 2.8782716
H -2.0010839 -0.5384152 -2.1484475
H -0.24527182 -0.7872282 -2.3223372
H -1.3004341 -2.0965152 -1.7265339
H 0.8961154 0.24852154 -0.661104
H -0.49131402 0.28831688 1.9850875
H 2.1016417 1.3027332 0.94724673
