11

O 0.49252325 0.35440186 -1.5776991
C 0.29289636 -0.80820644 -0.84972066
C -0.17402874 -0.5361964 0.58280635
O 0.16644438 0.77952707 0.9953673
C -0.07129502 1.6554052 0.045553654
N -0.7222196 -1.3532702 1.3576211
H -0.30898198 1.1386621 -1.0890304
H 1.2284044 -1.3821386 -0.76376814
H -0.46745974 -1.4752076 -1.2806886
H 0.4598603 2.5846448 0.30033335
H -0.8961435 -0.95762193 2.2792249
