9

O 1.0579208 0.6093555 -1.6982656
C 0.6175203 0.28807473 -0.4450075
N -1.242647 -0.45578218 0.7187685
N 1.3153342 0.29785576 0.58370656
N -0.6168187 -0.29069048 1.7925814
C -0.827023 -0.107423365 -0.45271862
H -1.4759728 -0.1492865 -1.3141203
H 1.9792106 0.88323545 -1.6008797
H -0.80752444 -1.075339 2.4159353
