9

O 0.8171781 -1.6750246 -0.7662017
C 0.2709738 -0.5614645 -0.24774086
N -0.30716857 -0.5147039 0.94204617
N -0.6917563 0.75686884 1.0237192
N -0.41159075 1.525783 -0.0053503877
C 0.2120442 0.7071377 -0.8495742
H 0.70466655 -2.387449 -0.12388949
H -1.1717991 1.1099463 1.8353294
H 0.57745206 1.0389066 -1.8083382
