11

C 0.7968201 1.3185908 0.1190181
C -0.67236793 0.3630725 0.44098562
O -0.13722889 -1.6669918 -0.85861784
C -0.63301486 -1.1589549 0.3558896
O -0.6123951 0.89979774 -0.7502315
H 1.383265 0.5773003 0.6796631
H -0.35299438 -0.9996114 -1.5268284
H -0.031041224 -1.5587265 1.1813755
H -1.6721421 -1.4768889 0.54448843
H 1.3036948 1.4590371 -0.8421865
H 0.62740505 2.243375 0.6564441
