11

C -0.733709 0.3040643 -1.5089476
C -0.7017528 -0.437914 -0.201978
O 0.340394 0.006132092 0.4558263
C 0.572658 -0.5778395 1.7461839
O 0.2500293 1.2682065 -1.7857767
H 0.5562389 0.2306654 2.4795332
H -0.73316306 -0.4850317 -2.2799642
H 0.8374179 1.2920765 -1.0205799
H -0.20984656 -1.3132215 1.9476681
H -1.738551 0.7560508 -1.5540049
H 1.5602844 -1.0431888 1.7220398
