11

C -0.75474172 0.43787971 -1.46503687
C -0.70669839 -0.41617139 -0.22890942
O 0.22918432 1.41938957 -1.67112790
C 0.59599067 -0.73091264 1.67974875
O 0.34718433 -0.03505973 0.44935196
H 0.82803243 1.37400587 -0.91585142
H -1.75805234 0.89536635 -1.45487956
H -0.76933759 -0.28041321 -2.30228333
H 0.59424247 0.01007579 2.48142452
H 1.58099337 -1.19557327 1.59975499
H -0.18679738 -1.47858710 1.82780863
