11

C -0.40958062 0.9162189 -1.1541113
C -0.07525687 -0.33318093 -0.37834713
O -0.05976892 -1.4395058 -0.87732756
C 0.2783378 -0.18431434 1.0910884
O 0.65296555 -1.4003977 1.6549445
H 0.5202639 1.3374037 -1.5564047
H -0.86940366 1.6801604 -0.51764387
H -1.0661072 0.67657334 -1.9935359
H -0.6001293 0.24253127 1.6043185
H 1.0839427 0.5623894 1.1812965
H 0.5447368 -2.0578783 0.9457229
