10

O -1.41010110 1.37161898 -0.52957387
C 0.35995502 -0.70157298 1.17244397
N -0.09212320 0.49290498 1.17428828
C -0.15560162 0.86974393 -0.23041597
C 0.53531704 -1.19216788 -0.22354846
N 0.19320734 -0.29130709 -1.05718501
H 0.56662295 -1.25873354 2.08167720
H 0.64882606 1.60970117 -0.38406246
H -1.52896431 1.27732320 -1.48248430
H 0.88286183 -2.17751113 -0.52113926
