11

N -0.052820843 1.1382258 1.3068256
C -1.1762774 -0.87730044 -0.47394755
O 1.1042165 0.28608122 -0.5191551
C 0.960295 1.0778422 0.5601811
C 0.21355608 -0.7290497 -0.88262606
O -0.11997395 -1.6981789 0.054626793
H -1.6007019 -0.19120926 0.24825303
H 0.109555125 1.817638 2.045821
H -1.8663427 -1.3932503 -1.1414899
H 1.8761871 1.6710062 0.6495384
H 0.55230725 -1.101805 -1.8480275
