11

N -0.4128752 -0.55154514 -1.4626718
C 0.19512258 -1.2933036 -0.6396026
O 0.77223337 -0.8182624 0.47389054
C 0.6988184 0.59436023 0.63102204
C -0.72945744 1.0812981 0.80224276
O -1.027692 2.2430038 0.70868933
H -0.7881427 -1.099221 -2.2302773
H 0.3410186 -2.3755352 -0.6929129
H 1.1555709 1.1152226 -0.21439107
H 1.2588385 0.8089869 1.546088
H -1.4634348 0.29499578 1.0779228
