11

N -0.42397282 -1.6491287 -1.0634018
C -0.2346801 -0.4879883 -0.3565296
C 1.013335 -0.13166466 0.20168713
N 1.1639588 1.0137203 0.8233171
C 0.06432138 1.7900953 0.87303746
N -1.1218045 1.4930514 0.37207747
N -1.2788805 0.32529584 -0.2479556
H 0.17960185 -2.430741 -0.86384755
H -1.3887314 -1.8844054 -1.2401057
H 1.8768183 -0.7895503 0.13097425
H 0.15003407 2.7513156 1.370747
