11

N -1.96404438 -0.50501285 -1.92721157
C -1.54133105 0.03093122 -0.99726045
C -0.98270917 0.69362007 0.20107947
O -0.29017477 -0.20029021 1.03534312
C 0.80716553 -0.82690086 0.44317677
C 2.57466182 0.95556214 -0.23808133
N 1.81038080 0.12135727 0.07161615
H -1.80170351 1.09610333 0.80122284
H -0.34325767 1.52439688 -0.12585109
H 1.21340066 -1.50487626 1.19290574
H 0.51761148 -1.38489059 -0.45693971
