11

N 1.3017234 1.0648416 -0.6848093
C 1.2940124 2.1247292 -1.1873176
C -1.5689362 -0.9222894 -0.24291535
O 0.32273433 -0.17891315 1.0296046
C 1.2193636 -0.2080648 -0.03934991
C -1.0102376 0.092122026 0.6768992
N -1.9830219 -1.7220087 -0.9638271
H 0.92769146 -0.95208067 -0.7921922
H -1.5790274 0.08087007 1.6092447
H 2.19114 -0.46025202 0.38352525
H -1.1154419 1.0810459 0.21113794
