9

O 2.144919 -1.0739887 0.38790917
C -0.60268706 0.9211517 0.2522768
N 0.73620147 0.8859971 0.24788713
C 1.165731 -0.46128595 0.04112218
C -1.1104836 -0.3552137 0.05132659
O -0.17130901 -1.2245616 -0.11781245
H 1.1216555 0.12463484 -1.0474458
H -1.1456004 1.8560848 0.2741941
H -2.1384268 -0.6728184 -0.08945783
