9

O -0.9333561 -1.1307123 -1.9690745
C -0.40811777 -0.6205154 -1.0170704
N -0.8981753 0.31868145 -0.14143537
C 0.06422448 0.6275819 0.8197567
C 1.1302371 -0.12289755 0.5266117
O 0.8702611 -0.89019126 -0.58423066
H -1.8233387 0.70326006 -0.22420883
H -0.103969954 1.3423922 1.608642
H 2.1022353 -0.22759904 0.9810092
