9

O -1.9285635 0.21921465 1.4249718
C -1.0824537 -0.5365207 1.0283351
N 0.29364386 -0.2652677 1.0967
C 0.99152255 0.19474569 0.15195794
C 0.4550781 0.4655888 -1.2299393
O -0.6631266 0.15707238 -1.5552683
H 1.1582568 0.9439888 -1.9361402
H 2.0531654 0.3955271 0.32180095
H -1.2775228 -1.574349 0.697582
