9

O 1.44018852 -0.23366585 -0.51537045
C 0.40872249 -0.83548338 -1.11107937
C 0.87602566 0.50745559 0.49829556
O -1.42427930 0.80042460 1.21882264
C -0.45946812 0.29377572 0.43425839
N -0.74950548 -0.56963779 -0.59875026
H -2.26193405 0.43327595 0.90577243
H 0.62927306 -1.47959685 -1.95011938
H 1.54097728 1.08345196 1.11817075
