9

O 1.4365079 -1.2189317 1.0574325
C -0.31153426 -0.007578958 0.04817907
C 0.46059313 0.1796945 -1.1931564
O -1.3477268 0.7825383 0.3560685
C 0.34395543 -0.70468414 1.1584178
N 1.0195525 -0.34116113 -2.135113
H -0.28049058 -0.7686596 2.0705793
H 0.65015495 1.2786883 -0.97676826
H -1.9710124 0.8000945 -0.38564003
