9

O 0.8215008 0.912848 -0.94137895
C -0.102675885 -0.32661867 0.60726714
C -0.33731923 0.39439902 -1.352867
O -0.3932669 -0.99984217 1.7321768
C 0.97959054 0.4428418 0.3428178
N -0.9401239 -0.35351 -0.48574206
H -0.6608646 0.6394053 -2.3542676
H -1.2329277 -1.453515 1.5785059
H 1.8660867 0.7439918 0.8734881
