10

N 0.17241941 -0.026753537 -0.79311544
C 0.026902873 -1.341522 -0.7255859
N -0.29098168 -0.6296168 1.3206508
O 0.18865398 -1.8940644 -1.8512144
C -0.020259146 0.36797392 0.506457
O -0.24144064 -1.7903063 0.47861663
N 0.11602166 1.6511431 0.9333959
H -0.10503323 2.367458 0.26039353
H 0.37022865 -0.5283595 -1.9983225
H -0.21651192 1.8240479 1.8687243
