10

N -1.41945664 0.11931310 0.44188527
C -0.01892245 -1.20986845 -0.56348972
N 0.16873701 1.76642501 0.98397380
O -1.28493369 -1.12848234 -0.21826232
C -0.19569831 0.58671783 0.39696145
O 0.33855265 -2.30547854 -1.20487245
N 0.73276509 -0.20260559 -0.23403155
H 1.28839739 -2.22019404 -1.37332778
H -0.59056638 2.39427538 1.19672232
H 0.98112513 2.19989725 0.57444093
