10

N 0.22471628 1.7676657 0.39429134
C -0.20323426 0.4799616 0.16359432
N -1.4025812 0.04767783 0.35805893
O -1.3356642 -1.3392618 0.10315117
C -0.07916687 -1.6983752 -0.26006553
O 0.28639054 -2.8100352 -0.5205609
N 0.6449225 -0.5143447 -0.25400385
H 0.7493887 2.1759214 -0.36689436
H -0.5336653 2.3684554 0.6864781
H 1.6488936 -0.47766542 -0.30404928
