11

N -1.0852801 -1.2438073 -0.5049425
C 0.10655446 0.2541511 0.22732525
C -1.0028217 -0.4349672 0.6334787
N 0.70417756 1.2950763 1.0908035
C -0.09198812 -0.98200005 -1.4137981
N 0.69358027 -0.029116051 -0.98446226
H 0.09564486 1.2969255 1.913906
H 0.7069637 2.2219403 0.6585484
H 0.008656051 -1.5073208 -2.3557842
H -1.7977331 -1.9439386 -0.6369685
H 1.6622458 1.0730567 1.3718938
