11

N 0.22232488 -1.160837 -0.6929598
C -0.44830236 -0.1554619 -0.055795047
C 0.27544805 0.8563647 0.4827028
N -1.8423674 0.15288882 0.22761059
C 1.4640981 -0.7534227 -0.5494651
N 1.552021 0.43544963 0.13894233
H -2.3228886 -0.49751213 0.8468581
H -2.4244032 0.3638623 -0.58031744
H 2.4184966 0.90432 0.34939668
H 2.3347967 -1.2759384 -0.9233803
H -1.2292235 1.1302866 0.7564073
