10

N -1.0501461 0.26270112 0.36126533
C -0.6600529 -0.9672343 -0.101414606
C 0.66771245 -0.885859 -0.43945417
C 1.094106 0.445447 -0.16938256
C 0.0114385085 1.1294746 0.32386538
H -1.9740442 0.49363086 0.6833659
H -1.3571028 -1.7910388 -0.14849679
H 1.275111 -1.6866987 -0.83643985
H 2.086187 0.84550744 -0.3231621
H -0.093208715 2.1540694 0.64985347
