10

O -0.76071775 1.2945161 1.3765962
C -0.36450747 -1.2528003 -0.54033566
N 1.0107124 0.4581805 0.045316394
C -0.40800595 0.8144258 0.12737887
C 1.0251188 -0.7406383 -0.38993585
N -1.2105701 -0.36138526 -0.19668686
H -0.5914188 1.551007 -0.6738446
H 0.005619355 1.7657033 1.7257208
H 1.9429343 -1.2851994 -0.5921897
H -0.64916486 -2.2438097 -0.8820197
