10

C -1.59210080 -0.18294735 0.50082870
C 1.43945645 -1.55127903 -0.99659691
N 1.11038043 -0.43585851 -0.61412642
C 0.64855845 0.72360655 -0.35886570
C -0.64617078 0.89572364 0.34525058
N -0.94751861 0.01940733 1.56284527
H -2.34236193 -0.86147969 0.11703918
H 1.22971351 1.58877058 -0.65837004
H 2.08784510 -2.12096114 -0.32018826
H -0.98780164 1.92501730 0.42218352
