10

C 1.1455014 0.53240603 -0.0756477
C -1.2859799 -0.034965 -0.2308531
N -1.0492308 -0.49984267 0.9302553
C -0.037577447 0.33716422 -0.9449002
C 0.0939264 -0.4839313 1.5249859
N 1.190005 -0.5141032 -0.8118953
H -0.13710862 0.8428291 -1.9020839
H 1.8729444 1.1865774 0.38801476
H 0.4958073 -1.4863442 1.7328674
H -2.2882876 0.12020975 -0.6107431
