9

C 0.41545174 -0.5826534 0.24424262
C -1.1894194 1.4295318 -0.44576454
C -0.3197987 0.32783028 -0.058400355
C 1.1794205 -1.6701169 0.73464537
O 2.2449317 -2.0611591 0.08806329
H 1.9154413 -2.608212 1.0776122
H -1.1561086 1.5828538 -1.528459
H -2.2228193 1.2282976 -0.1552466
H -0.8670992 2.3536277 0.04330705
