9

C -0.49271941 -0.38608958 -2.08648499
C -0.16003156 -0.12731095 -0.72296041
C 0.22523038 0.27434981 0.35208178
C 0.68131498 0.75559206 1.65231860
O -1.21975735 -1.49874121 -2.12492179
H 0.85097082 1.83639003 1.62805485
H -1.43661388 -1.65365033 -3.05432297
H 1.61643852 0.26196264 1.93421496
H -0.06483242 0.53749768 2.42202003
