10

O -1.0241076 2.0336137 0.14188273
C 0.15479834 -0.015232235 0.36760107
C -0.088038415 1.4457648 0.6207958
O 1.139384 -0.5725305 0.9697308
C -0.55565125 -0.79762286 -0.6624862
O 0.70014757 -0.8793057 -1.2750186
H 0.6464038 1.9097565 1.3048673
H -0.9966172 -1.7479748 -0.32493332
H -1.2927979 -0.18834047 -1.2029864
H 1.3164787 -1.1881282 0.06054688
