10

O 1.31091570 -0.41301733 0.06345984
C 0.20915300 -0.90690226 0.82976186
C 0.09837798 0.28564224 -0.01898484
O 0.07149053 1.57386420 0.45953918
C -0.63590466 0.18013173 -1.32710438
O -0.72177538 -0.85228785 -1.94282920
H 0.30191966 -0.77617869 1.90992219
H -1.10872179 1.12464604 -1.66078181
H -0.20040984 -1.84960122 0.47649736
H 0.67495480 1.63370268 1.21051969
