10

O 0.9517633 -0.33614418 -0.4137609
C -0.6069821 1.076677 -1.0420923
C -0.05347369 -0.28101727 0.47810537
N -1.0066184 0.5384058 0.16290836
O 0.9180334 -1.878758 1.9357151
C 0.58880335 0.5354549 -1.3826061
C 0.010863619 -1.1220834 1.6897242
H -0.8657606 -0.98364055 2.347336
H 1.2698206 0.64622426 -2.2104895
H -1.2064495 1.8048815 -1.5648402
