10

O 1.7116034 -1.775184 0.82635313
C 1.1517495 -1.4696753 -0.19638373
C 0.19436246 -0.34079704 -0.26333597
N -0.39238486 -0.041603044 -1.3926023
O -1.1911471 1.0358768 -1.1207592
C -1.0667393 1.3614315 0.17854756
C -0.20028631 0.5299439 0.79537797
H 1.3160508 -2.0065129 -1.1505924
H -1.6596316 2.2064836 0.5037788
H 0.13642308 0.50003684 1.8196161
