10

O -0.8392855 1.5120127 0.048680075
C 0.77739906 -0.27292928 -0.54666555
C -0.95434844 -0.6588942 0.90463924
N 0.11073051 -1.0245637 0.2554653
O 2.457492 0.92799944 -1.9097532
C -1.4357316 0.7146088 0.75422585
C 1.7534001 0.21005951 -1.2544192
H -2.3532274 0.9952167 1.2972095
H -1.4674776 -1.387227 1.5245602
H 1.9510496 -1.016283 -1.0739423
