11

C 0.60730821 2.47524297 -1.37495206
N -0.47097911 -0.35503200 0.27275057
C 0.48687567 0.40016079 -0.29597899
O -0.16087512 1.59224631 -0.76882835
C -0.19805382 -1.64589605 0.87011789
O 1.65296131 0.17989956 -0.41177796
H -0.15293870 3.25800320 -1.61148660
H -0.77370151 -2.42944212 0.36900526
H -1.41164892 0.01345005 0.26431835
H -0.44710760 -1.63626118 1.93511975
H 0.86815975 -1.85237130 0.75171215
