9

N -1.12899641 -0.68741131 -1.24308853
C -0.24795476 0.42946142 0.74475855
C -0.16768975 -0.29381445 -0.51616443
N 0.84280858 0.77233975 1.37016112
N 1.78118206 1.06861918 1.91676525
O 1.10616779 -0.53656796 -0.89582451
H -2.03410014 -0.45153158 -0.84676012
H 1.02762544 -1.01664549 -1.73492397
H -1.17904275 0.71555030 1.20507715
