11

N -2.0166998 0.11241604 -1.9050384
C 0.96674883 -0.34150437 -0.08220602
C -1.1834022 0.3920497 -1.1530921
C -0.0975957 0.7717762 -0.21033126
C -0.31108853 -0.50548697 1.531068
O -0.5220442 0.8320831 1.1212158
H 0.92758524 -0.7327762 1.1080171
H -0.9442027 -1.1608412 0.90261155
H 1.9806316 0.06453733 -0.00575716
H 0.2977237 1.7430886 -0.52778786
H 0.902344 -1.1753423 -0.77869964
