11

C -0.19214085 0.44200789 -0.77637428
C 1.11776364 -1.02487842 0.50706117
O 0.03656492 -0.85740615 -0.40122012
C -1.81593446 1.34255495 0.75721237
O -0.57968878 1.24955386 0.37121539
H -2.41569099 0.74064339 0.00424128
H -1.02533142 0.43512140 -1.48808891
H 1.26281711 -2.10307729 0.59491030
H 2.03560726 -0.55982914 0.12129726
H 0.87538459 -0.59834559 1.48711248
H 0.70064905 0.93365543 -1.17736713
