11

C -0.839717 -0.14161421 -0.71157724
C 0.40474737 -0.9279222 -0.2916142
O 0.66264945 -0.4295955 1.0081215
C 0.3518236 0.9346733 0.92122257
O -0.7367977 1.066353 0.028918177
H -1.7628211 -0.66119874 -0.4322641
H -0.86350834 0.07784278 -1.7848686
H 0.2505904 -2.0068967 -0.22815244
H 1.2523742 -0.7152627 -0.9602234
H 0.069801286 1.2963326 1.9139279
H 1.2108579 1.5072887 0.53650963
