11

N -2.235318 -0.32157725 0.2535715
C 1.1032473 -0.44807318 -0.68684477
C -0.24713655 0.98030347 0.8209182
C -0.9890207 -0.14543031 0.20935091
C 1.0594763 1.150969 0.6917589
O -0.112477586 -1.0169542 -0.38833344
H 1.7767911 0.3335106 0.21745832
H -2.5029976 -1.1645135 -0.2537013
H 1.8829559 -1.2127424 -0.68393314
H -0.8353043 1.6785872 1.4099396
H 1.0997841 0.16592059 -1.5901848
