9

O -2.0247831 0.6372281 -0.2591025
C -0.39760897 0.1887102 1.4566227
N 0.052348096 -0.14090194 -0.8153922
N 2.2273393 -0.23014759 -0.6485096
N 1.1547667 -0.8198345 -0.45159936
C -0.7960768 0.21330263 0.14584664
H 2.9496777 -0.9123654 -0.40149134
H -2.0552604 0.5290199 -1.2169884
H -1.1104025 0.5349885 2.190614
