9

O 0.8169014 -1.6759986 -0.7634451
C 0.270375 -0.56225044 -0.24635082
N -0.30811244 -0.51334494 0.942612
N -0.68999577 0.76042837 1.0235186
N -0.40839282 1.5263317 -0.006916189
C 0.21459423 0.7069359 -0.85027856
H 0.6967396 -2.3884041 -0.12305992
H -1.1741467 1.1123086 1.832833
H 0.5820375 1.0339935 -1.8089128
