12

C 0.39657265 1.0114684 0.15773687
C 1.0944009 0.9209948 -1.533108
O -0.4891155 1.1831735 -0.7763832
N -1.1384852 -1.7630919 1.8600793
C -0.9897208 -0.8609332 0.9778072
N 0.12723427 -0.03352449 1.0171846
H 1.8126521 0.14300725 -1.2644081
H -2.0024772 -2.2723634 1.6859162
H 0.75673306 -0.180327 1.7934694
H -1.6602112 -0.64758974 0.14588396
H 1.5483886 1.8991864 -1.6409609
H 0.5440284 0.59999907 -2.4232175
