12

O -0.6320109 0.93971276 0.84560585
C 0.21006623 1.3044327 -0.19468728
C -0.7501733 -0.47686005 0.838178
O 1.4770759 1.1036055 -0.122624494
C -0.07416117 -0.95236325 -0.47631818
O 1.1882774 -1.1922293 -0.43685594
H 1.6249061 -0.043477997 -0.15942612
H -1.8142916 -0.7265945 0.87712026
H -0.22037148 -0.92596006 1.6827132
H -0.116103254 2.2372866 -0.6584084
H -0.21834932 0.29567125 -1.0317782
H -0.6748648 -1.5632238 -1.1635188
