12

O -0.66236013 1.4921219 -0.8170081
C 0.1847431 0.41670546 -1.1318483
C 0.48144278 -0.40377918 0.12185937
O 1.0400891 0.4503851 1.0844976
C -0.7920902 -1.0136065 0.6683631
O -1.1352373 -0.82384384 1.8097498
H -0.2572088 1.9173151 -0.045197085
H 1.1384692 0.756155 -1.5586226
H -0.32593876 -0.19796449 -1.8809319
H 1.1686438 -1.2282488 -0.13198559
H 0.53529274 0.29266742 1.8998736
H -1.3758458 -1.6579068 -0.018750047
