12

N -0.27262512 -0.010200057 -2.0499766
C -0.15975444 -0.03731336 -0.653354
C -1.0335888 -0.3109348 0.33345622
N -0.35598144 -0.09970517 1.5476513
C 0.93391865 0.3324171 1.3315805
O 1.7738765 0.65782005 2.1495147
N 1.0530121 0.31169662 -0.05435287
H 0.2920795 -0.7254722 -2.4954114
H -1.2342652 -0.12556085 -2.3403459
H -2.050297 -0.66898227 0.29072857
H -0.7639296 -0.090637594 2.4649034
H 1.8175547 0.7668726 -0.52439386
