10

O 1.3560756 0.11560357 0.7527985
C -0.0070110247 0.14519902 1.3054527
C -0.5059837 -0.0072395382 -0.11406962
O -1.7144662 0.060722187 -0.74685824
C 0.7797048 0.020164065 -0.47770026
O 1.5731064 0.0012192919 -1.5455122
H -0.1471817 -0.6876598 2.0002663
H -0.18938428 1.1053555 1.7959014
H 1.0225034 0.032754127 -2.3377361
H -2.1673634 -0.7861185 -0.6325423
