11

O 0.40291864 -1.1876965 -1.839238
C 0.5428628 0.35340244 1.3022803
N 1.0109161 -0.4499544 0.2776009
C -0.95354414 0.35395274 -0.3979892
C -0.6631069 0.85917103 0.9111485
C 0.10766176 -0.44467518 -0.7391422
H -0.3187769 -1.0840605 -2.4695191
H -1.2926283 1.524102 1.4855239
H 1.8768076 -0.9638132 0.26201132
H 1.1150725 0.48448333 2.2075078
H -1.8281832 0.55508804 -1.0001843
