11

O -1.474755 1.6287574 1.2697926
C -0.75223875 0.84272975 0.69368565
N -0.75618243 0.5624373 -0.65191615
C 0.22291656 -0.42702967 -1.034972
C 0.87315416 -0.745403 0.28787625
C 0.32242927 -0.027065307 1.264828
H -1.3937612 1.0120162 -1.2867419
H 0.952148 -0.034073718 -1.7556924
H -0.23717767 -1.3177693 -1.4810177
H 1.6754293 -1.4692407 0.37544635
H 0.5680375 -0.025358677 2.3187115
