11

O -1.73114887 -1.34170077 -0.39840355
C 0.94427890 1.04211881 -0.17436454
N 0.05831058 -0.67017647 0.92137720
C -0.68478570 -0.49502805 -0.20414212
C -0.17754532 0.55711460 -0.92251035
C 1.06778931 0.27568270 0.94834190
H -0.55450575 0.93745868 -1.86130056
H 1.57888624 1.87130000 -0.45377387
H -2.15668171 -1.10151839 -1.22911010
H -0.11757242 -1.38389669 1.60965811
H 1.77297450 0.30864585 1.76422807
