11

N 0.32628548 2.9287794 0.44355556
C -0.20833082 1.9107125 0.34837362
C -0.8553225 0.60062385 0.20525862
C 0.009358026 -0.35694644 -0.59549123
C 0.9157267 -1.2919071 0.06864027
O -0.33182582 -1.7208487 -0.46620852
H -1.8245385 0.7352712 -0.2878947
H -1.0496529 0.17752346 1.1952451
H 0.23921387 -0.036382157 -1.6113158
H 1.7996312 -1.653221 -0.4555586
H 0.9794552 -1.2936051 1.1553957
