11

N 0.33858005 0.67610227 -2.00987515
C 1.36648352 1.01252932 -0.89480113
C -1.33983845 -0.20499178 1.18469354
C 0.43752929 -0.06498980 -1.01678747
C -0.60591423 -1.19167831 0.70238172
O -0.03753071 -1.22447364 -0.56375322
H -1.57681389 0.68401330 0.60914721
H -1.74741037 -0.30510241 2.18265864
H 1.14907169 1.87763892 -0.26920546
H 2.42036128 0.86794740 -1.13973002
H -0.40451823 -2.12699536 1.21527136
