10

C 1.06791079 -0.31343744 -1.41205941
C 0.10338583 0.46796719 -0.55382547
O -0.16208170 -0.27850020 0.48659669
C -1.07547200 0.28758122 1.44073521
H 0.62714568 -0.40116915 -2.41271477
H -1.92686973 -0.39139191 1.52816878
H -1.39006642 1.27417915 1.09404168
H 1.34401645 -1.30392224 -1.03076064
H 1.96541214 0.30496294 -1.53939963
H -0.55338128 0.35373030 2.39921782
