11

N -0.7114333 0.5803328 2.3834352
C 0.75784 -0.1491378 -1.6543466
C -0.18273665 -0.5924789 -0.7791598
C -0.105520666 0.5722632 1.2454284
C -0.785139 -0.58038527 0.35256326
O 0.80836254 1.2175549 0.71180004
H 1.7331864 -0.63001496 -1.702198
H -1.596284 -1.1666669 0.75962716
H 0.51240855 0.6334555 -2.3698506
H -0.2823748 1.3169237 2.9499478
H -0.14830875 -1.2018464 -1.8972468
