11

N 1.5763552 1.7613934 -1.4391314
C 0.29869187 0.9427027 0.60536325
C -1.0549746 -1.3310978 0.7378148
C -0.21502998 -0.23211157 0.22411016
C 0.8708532 1.0047253 -0.7449673
O 0.2940202 -0.25675595 -1.0834345
H -1.3420938 -1.1295327 1.7717589
H 0.3048614 1.567004 1.4836307
H -0.5067453 -2.2777073 0.69258374
H 1.7310491 1.3827363 -2.373367
H -1.956987 -1.4313564 0.12563828
