10

N 0.5835139 -1.6861491 -0.5756106
C -0.08038837 -0.6142959 -0.13692826
C -1.2094182 -0.012007029 0.35233104
O -0.8733108 1.3259995 0.65335816
C 0.3899315 1.4835428 0.32429904
N 0.90479004 0.3914366 -0.1589384
H 1.5722502 -0.5312361 -0.6237199
H -2.2167127 -0.30891255 0.58511657
H 0.8577458 2.447534 0.4678265
H 0.071598195 -2.4959123 -0.8877342
