10

N -0.5654131 1.1651436 -1.2868255
C -0.15427808 0.2501183 -0.3249808
C 0.68481404 -0.81415147 -0.3949103
O 0.6893273 -1.413971 0.8460348
C -0.14647444 -0.67356884 1.5751365
N -0.67996985 0.32597277 0.95447564
H 0.14422022 1.4197385 -1.9583325
H -0.97504026 1.985142 -0.8623153
H 1.300441 -1.2710168 -1.1526475
H -0.2976268 -0.9734071 2.6043646
