9

N 0.2964654 -1.1245179 -0.39040917
C 1.0200479 -0.0781097 -0.5468513
C -0.8768263 -0.65179133 0.31957534
N -0.76630646 0.77630377 0.5578916
C 0.36030856 1.1026887 0.041647565
H -0.9773457 -1.1793654 1.2749007
H -1.7793437 -0.8662566 -0.26407677
H 0.74125594 2.1194663 0.05741614
H 1.9817444 -0.0984178 -1.050094
