9

N 0.28840173 -0.89569439 0.78702457
C 0.65574341 0.32720796 0.89921114
C 0.13388551 1.13153562 -0.22176750
N -0.55269938 0.39889785 -1.01809628
C -0.50038047 -0.92766921 -0.42992328
H -1.51641550 -1.27562147 -0.21154945
H 1.26813523 0.68384077 1.72159493
H 0.28566632 2.19433257 -0.38495903
H -0.06233691 -1.63683016 -1.14153509
