11

C -0.5343549 -1.0780187 -1.4121187
C -0.017746935 -0.2511492 -0.28647003
N 1.1584975 -0.2613994 0.24644168
C 1.0918835 0.69303876 1.2528691
C -0.14049084 1.2329354 1.2679961
O -0.86968315 0.63603264 0.28051546
H -1.4268941 -1.6323725 -1.1092639
H 0.24148007 -1.7831016 -1.7118667
H -0.8015358 -0.45379305 -2.270584
H 1.9406704 0.91264606 1.885982
H -0.64182556 1.9851813 1.8564988
