11

C -0.47437656 -1.3024141 0.800523
C 1.4624841 -0.0074294284 0.10918804
N -0.8394705 -2.0290148 1.6188772
C 0.0109618185 -0.3638344 -0.22017187
C -0.8874225 0.8630361 -0.36554652
O 1.8799955 1.1175181 0.070138685
H 2.1103022 -0.8704273 0.36635178
H -0.94656676 1.4152669 0.5770253
H 0.050675575 -0.9197085 -1.1684618
H -1.8960725 0.56621426 -0.66499037
H -0.47051075 1.5307931 -1.1229335
