11

C -1.0106797 -0.53983825 0.2973313
C 0.07006656 0.060880866 0.9241489
N -1.465676 0.50431806 -0.61030746
C -0.7703915 1.5407119 -0.3425225
C 0.6322611 -1.1767323 -0.32539624
O 0.21900888 1.397743 0.5675469
H 1.5665724 -0.623189 -0.47290736
H -0.8771894 2.5372148 -0.7544736
H 0.642943 -0.23394021 1.7947773
H 0.80992204 -2.1020982 0.21754968
H 0.18316248 -1.3650702 -1.2957468
