9

N 0.63157153 -0.7529204 0.16894095
C -0.080969 1.4123245 0.4822942
C -0.8386003 0.73895913 -0.55004096
C -0.41030547 -0.5548668 -0.68396056
N 0.7212263 0.42608327 0.8966969
H 0.8325012 -1.6333351 0.62345135
H -0.7325886 -1.3606362 -1.3321289
H -1.6202679 1.202874 -1.137639
H 1.4974322 0.52151734 1.5323857
