9

N -0.5415915 -0.91420335 -0.15317032
C -0.31874898 1.2851273 -0.49806133
C 0.6812387 -0.5827981 0.3152624
C 0.8285994 0.7753961 0.18825822
N -1.1518744 0.17948344 -0.70332074
H 1.6806306 1.3585831 0.51039255
H -0.941289 -1.8301572 -0.28431606
H -1.585634 1.076885 -0.067896545
H 1.3486692 -1.3483162 0.69285184
