9

N -0.7758888 0.24481018 -0.8744414
C 0.5723908 0.31086552 -0.7610846
C 0.8711761 -0.111321025 0.51305145
C -0.3855865 -0.41035298 1.086375
N -1.3779609 -0.19181328 0.23979346
H -1.3433168 0.48037484 -1.6716729
H 1.1948242 0.64557904 -1.578698
H 1.8496734 -0.1922368 0.96537346
H -0.6053112 -0.7759055 2.0813034
