11

O 0.4777332 -0.56305873 -0.76656324
C -0.17170303 0.5491988 -0.2235657
C 0.60083425 -1.4536487 0.33483064
O -0.36238995 -1.0791796 1.2920713
C -0.64731705 0.24280109 0.9800264
N -0.3004221 1.710501 -0.97509193
H -1.229627 0.8120131 1.6860207
H 1.6046132 -1.3578084 0.77119625
H 0.5864611 2.0127587 -1.3601681
H -0.96160245 1.599029 -1.737625
H 0.40341964 -2.4726062 -0.0011310013
