10

N -0.68432492 0.60821036 1.28381739
C -0.33266592 0.56585734 0.04955169
C -0.86087578 0.67381617 2.47270097
N 0.79430588 -0.52120206 -1.75564312
C 0.45405047 -0.59462592 -0.42361013
O 0.74377721 -1.53547136 0.29118877
H -0.63998464 1.37440209 -0.60361682
H -1.73486500 0.26982019 2.97695702
H 1.45802385 -1.21073978 -2.06849815
H 0.80255880 0.36993286 -2.22284766
