10

N -0.82752275 0.87165934 1.3531615
C -0.172689 0.17778729 0.35068026
C 0.34918287 -1.0667834 0.2111479
N 0.9862625 -1.1479943 -1.0266168
C 0.8132405 0.009253245 -1.5529163
O 0.11374575 0.8818983 -0.7726634
H -1.5018449 1.5382009 1.005218
H -1.2335926 0.26664647 2.052972
H 0.33074197 -1.9044992 0.8934702
H 1.1424756 0.37383124 -2.5144534
