11

C -1.6669852 -0.62269485 0.14340565
C 1.0031614 0.20550628 -0.5019365
O 1.3419954 -1.0189488 0.16253965
C 0.012932783 1.0348932 0.21311383
O -1.1958153 0.5650173 0.40666527
H 1.6098449 -0.78397495 1.0588901
H 0.11579125 2.0722978 0.49050063
H 0.5940222 -0.12797406 -1.468616
H -2.7227528 -0.7314791 0.35426977
H -0.9875655 -1.4068375 -0.15630542
H 1.8953711 0.8141949 -0.702527
