12

C -0.7670141 1.1745626 0.0032685443
N -0.18515517 -0.15339911 -0.14215517
C 1.0638785 -0.41257426 0.40426913
N 1.7043283 0.48616853 1.0314529
C -0.85644513 -1.1471039 -0.81989
O -1.9403267 -1.019972 -1.334896
H -1.7409819 1.1564063 -0.48725313
H -0.114847 1.9166727 -0.462726
H -0.8706636 1.4193912 1.0630463
H 1.4018681 -1.4406177 0.22902568
H 2.5896995 0.114519864 1.3583024
H -0.28434068 -2.0940545 -0.842445
