12

C -0.45427936 0.38090727 0.036473997
N 0.20924248 -0.47900686 -0.6114553
C -0.2570311 -0.77757496 -1.9523526
N -0.108836986 0.7648821 1.3245616
C 0.9590479 0.25651243 2.039675
O 1.215506 0.63095427 3.1580074
H 0.5445532 -0.55668455 -2.6642568
H -0.6613977 1.4601103 1.8017161
H -0.4704491 -1.8490318 -2.0224414
H -1.3461674 0.8939748 -0.3478031
H 1.5280194 -0.5055414 1.4892671
H -1.1582077 -0.2195016 -2.2513916
