11

N 0.02979474 0.90801536 1.15722673
C -0.71463157 -0.15432174 0.83044272
C -0.22923106 -0.59422320 -0.45970624
N -0.56560131 -1.54223213 -1.24748953
N 0.95802925 1.32566045 0.37113312
C 0.88954914 0.39353276 -0.75207486
H -1.49948543 -0.51585024 1.47231476
H 1.85554412 -0.11356260 -0.86075647
H -1.33534616 -2.08144891 -0.85402309
H 0.70467906 0.94877914 -1.67840434
H -0.09330081 1.42565084 2.02133703
