14

C 2.1225247 -0.16588968 -1.1963905
N 1.1217719 -0.54144037 -0.2129586
C -0.034182742 0.20619927 -0.11780683
O -0.18893167 1.271804 -0.68912673
N -0.9992731 -0.36951253 0.68661386
C -2.1561074 0.42522383 1.062077
H 1.8431811 -0.4503366 -2.2190385
H 3.0708523 -0.6430294 -0.93910325
H 2.2502725 0.91675335 -1.1657861
H 1.0167137 -1.5334281 -0.052541394
H -0.65719175 -0.99817544 1.4014564
H -2.9267113 -0.23610814 1.4627048
H -1.9186237 1.1952503 1.8074218
H -2.5442946 0.9226898 0.17247805
