14

C 0.23533186 -0.0032588057 0.18359897
N 0.566253 -0.2753404 1.4139796
C 0.3623521 1.2006339 -1.9405967
O -0.8324797 -0.56019396 -0.21858515
N 0.9463136 0.7928824 -0.6770878
C -1.1077949 -1.503096 1.508235
H -0.4921984 -2.0607593 2.2061942
H 1.4539843 0.03032078 1.8020989
H -1.7442076 -0.76700985 1.9824871
H -1.6381546 -2.1560702 0.8212777
H 1.6095785 1.4221511 -0.25477833
H -0.36664918 2.0147042 -1.830723
H 1.1570274 1.5242535 -2.6178474
H -0.14935575 0.3407824 -2.3782537
