9

N 1.2671759 -0.15415443 -1.5659938
C 0.22137994 -0.022916622 -0.8622049
N 0.29495344 -0.03636859 0.5234904
C -0.7862983 0.09214299 1.3642198
O -0.71422076 0.0744954 2.5679367
H 1.0454557 -0.12527864 -2.554394
H -0.8000293 0.10782703 -1.2326785
H 1.2105377 -0.15085211 0.941934
H -1.7389542 0.21510497 0.8176901
