9

O 1.7476833 0.53814125 -1.6411753
C 0.89165676 0.3528116 -0.81877583
N 0.26764524 -0.8141906 -0.44165874
C -0.6730406 -0.55520284 0.5568974
C -0.61583656 0.7596354 0.78376925
O 0.32587734 1.3356904 -0.037394207
H 0.48489627 -1.7010446 -0.86120033
H -1.2815545 -1.3275206 1.0010022
H -1.1473273 1.4116797 1.4585356
