9

O 0.72911268 1.65706501 -1.35173621
C 0.88331163 -0.21628692 0.26679946
N -0.23026272 -0.98041050 0.81480746
C -1.26356179 -0.47456947 0.28851137
C 0.25360266 0.80676013 -0.66724897
O -1.11014988 0.57083711 -0.58915094
H 1.57731043 -0.86449042 -0.27759758
H -2.28992933 -0.78115785 0.45619723
H 1.45056627 0.28225262 1.05941824
