9

O -0.8170681 0.47335157 1.0068389
C 0.45134845 -0.13694978 -0.82202846
N 0.7526455 -1.0088682 0.30634373
C -0.6024233 0.83609295 -0.3137391
C 0.013856749 -0.59396005 1.2458181
O -1.1743773 1.7364068 -0.8428464
H 1.3440043 0.4010285 -1.1571537
H 0.07251306 -0.71015763 -1.6741357
H -0.04049941 -0.99694425 2.2509024
