12

C 0.48189390 -0.15095222 1.01254096
C 0.41395835 1.05234560 0.05861011
N 0.08786280 -1.22948605 0.12333160
N -0.66572677 0.64362866 -0.82136556
C -0.73944327 -0.74281902 -0.88245760
O -1.39557098 -1.39885974 -1.65942251
H 0.18732710 1.98329756 0.58459487
H 1.36235596 1.16880099 -0.48296901
H 1.48523994 -0.29948133 1.41838065
H -0.22550501 -0.02315567 1.84167056
H -0.85383418 1.14072665 -1.67917602
H -0.13855786 -2.14404564 0.48626198
