12

C -0.90429205 -0.8120466 -0.6325536
C 0.66178006 0.8778134 -0.27151197
N -0.4894708 0.44873092 -1.0445814
N -0.21858372 -1.0911517 0.54422015
C 0.4341587 0.10803206 1.0392703
O -1.705904 -1.5276651 -1.1892186
H 1.6070157 0.57120174 -0.7393225
H 0.6749935 1.9598274 -0.11735505
H -0.66263974 -1.7391256 1.1785293
H 1.3713754 -0.117321104 1.553382
H -0.2158183 0.6812354 1.7124485
H -0.5526147 0.64046913 -2.0333073
