9

O -2.5772479 0.67211765 0.29134393
C -1.6298426 0.09807064 0.76132315
C -0.30072087 0.046106894 0.094543815
N 0.7597118 -0.5479897 0.5427478
C 1.6606381 -0.27985132 -0.45549294
N 1.1856656 0.42352358 -1.4395943
O -0.12739621 0.6449945 -1.0770719
H -1.6590703 -0.43855178 1.7255998
H 2.6882622 -0.61842066 -0.4433993
