9

O -1.16719262 1.30157485 0.76302059
C -1.56921444 0.40310691 0.08552925
C 1.06787588 -1.37694650 1.66184609
N 1.17484980 -0.74620848 0.67440104
C 1.29610001 0.01617776 -0.47061741
N 0.35140376 0.34232975 -1.25208161
O -0.88196510 -0.24624937 -0.87944370
H -2.56472597 -0.06167035 0.13137190
H 2.29286849 0.36788524 -0.71402610
