11

C -0.15758052 -1.6175652 -0.03138031
C 0.037210036 0.91807467 -0.6836673
C -0.100517124 -0.14422736 0.21265529
N 0.004500962 2.111549 0.11707636
N -0.07238274 1.6978526 1.3696171
N -0.18097445 0.38572046 1.4394804
H 0.8063897 -1.9951046 -0.3855909
H -0.91409737 -1.8621355 -0.7832866
H -0.071012 0.9759421 -1.7590246
H -0.4090523 -2.1219494 0.9029476
H 1.0575157 1.6518431 -0.398827
