12

C -1.2320579 0.40222305 0.60635066
C 0.4237405 -1.0761005 0.19644587
C 0.15666638 0.5678871 0.11927928
O 0.79585063 1.0829055 1.1064296
N 0.3703612 1.0939 -1.1996616
H 1.4941055 -1.114214 -0.010987088
H -1.5021864 1.0077072 1.4684162
H -1.8176501 -0.5022191 0.43734643
H 0.24222794 -1.5136085 1.1802253
H 1.3619038 1.0576084 -1.4130449
H -0.1432645 -1.6046071 -0.5742042
H -0.14969696 0.5985176 -1.9165951
