12

C -0.04291323 -0.19976532 0.13911502
C 1.2799227 -0.4001991 0.7369366
C -0.19584493 0.41439083 -1.2373606
O 0.55977386 -1.4762554 0.15283415
N -1.1508497 -0.07524181 1.0447342
H -1.0471864 -0.040273767 -1.758519
H 2.1725235 -0.08574589 0.19406484
H -2.0143707 -0.33046812 0.57477117
H 1.3633406 -0.4375851 1.8212056
H -1.250385 0.89243037 1.3375206
H -0.3743936 1.492549 -1.16479
H 0.700383 0.24616444 -1.8405124
