10

C -0.03924251 0.09549151 0.049098704
C 0.6750768 0.20190236 1.2798762
C -0.72547674 -0.9959335 -0.4829945
C 1.2718805 0.27091467 2.3182914
N -0.1873696 1.1208421 -0.8040679
N -1.1980137 -0.6753248 -1.6854922
N -0.9335513 0.59727913 -1.894579
H 1.8000182 0.34392482 3.2428062
H -0.88663644 -1.9728863 -0.048455674
H 0.22331476 1.01379 -1.9744834
