11

N 0.10717184 0.9397218 -0.9085797
C 0.015118579 -0.023584105 0.03821221
C 1.2531798 0.017442249 0.6316187
C -1.2010216 -0.86213976 0.261561
N 2.0072238 0.9765131 0.028426282
N 1.3114532 1.5362898 -0.90625155
H 1.6375856 -0.57901555 1.4461089
H -1.0642731 -1.4777259 1.1529042
H -2.091663 -0.24385074 0.4140507
H -1.3895898 -1.5304639 -0.5846307
H -0.58518505 1.2468133 -1.5734198
