11

N 1.79422731 -1.51103750 -0.07310728
C 0.81855585 -0.71225044 -0.04942573
C -1.19032730 0.27408987 -0.52563121
C -0.48096974 1.06196557 0.53876078
C 0.68375976 0.48418041 0.80741878
O -0.30790393 -0.80849405 -0.82232398
H -1.36041344 0.85634557 -1.43872815
H 1.64141047 -2.25475470 -0.75437482
H -2.15066809 -0.12920525 -0.18565921
H -0.89461207 1.95953420 0.98680799
H 1.44694112 0.77962655 1.51626255
