11

N 0.76992882 0.71296915 -1.16684873
C 0.20788286 -0.20041819 -0.47873137
C -0.60628050 1.58091430 1.13904274
C -0.52285559 0.18973140 0.76744345
N 0.25229139 0.97278765 1.81952210
N 0.13479380 -1.54921357 -0.77256773
H 1.26608747 0.33378893 -1.97444590
H 0.74802204 -1.89593602 -1.49626640
H -1.01383517 2.57263742 1.01216631
H -1.24382701 -0.53451754 1.14863549
H 0.00779176 -2.18274369 0.00205028
