11

N 1.279759 -1.0119553 0.59435374
C 0.5588329 0.012825047 0.010383207
C -0.9131667 -0.24592814 -0.06317651
C -1.7707214 0.7002999 -0.73376435
N -1.8419794 0.81593114 0.511855
N 1.0145718 1.0887719 -0.49786678
H -2.1629755 1.1520253 -1.632538
H -1.2270848 -1.280653 0.07980452
H 2.022373 1.1795223 -0.36271748
H 2.2434552 -0.82078516 0.82833815
H 0.79693615 -1.590054 1.2653284
