11

N 0.83976513 -0.07547199 1.35959
C -0.6281751 1.862315 -0.3388883
C -0.6981462 0.42950395 -0.39954945
C 0.22483502 -0.44405735 0.2937404
N -0.022826832 2.2569928 0.68372154
N 0.30186352 -1.7132275 -0.2933919
H 1.0107005 -2.3138342 0.10262701
H 0.30839875 -1.7315475 -1.301517
H -1.2631093 2.4920962 -0.978492
H 1.5569048 -0.7542188 1.6217121
H -1.6302103 -0.0085507445 -0.74955255
