12

N -0.36127216 1.9593077 -0.38212904
C 0.48541504 0.89233667 -0.6298075
C -0.99984354 2.9350522 -0.22903007
N -1.6865946 -0.10105924 1.3648742
C -0.8365622 -0.77668655 0.7173457
N 1.1020254 -1.4032925 -0.5611646
C 0.27996925 -0.35173935 -0.16807055
H 1.9853758 -1.1452589 -0.97713804
H 1.1796519 -2.1675491 0.09179752
H -1.5774076 0.89998096 1.2302722
H -0.90073633 -1.8671455 0.8135701
H 1.3299791 1.1260537 -1.2705197
