11

O 0.31180707 1.0171545 -1.1679909
C 0.19198392 0.16391978 -0.030079838
O -1.4353629 -0.48798913 1.1092799
C -0.61639565 0.6050547 1.1799252
C -0.79472953 -0.9952818 -0.09628109
C 1.641794 0.2531654 -0.27427852
O -0.6174188 1.4910786 1.9694074
H -0.3828635 -1.9914275 0.07206538
H -1.476876 -0.97159797 -0.9457573
H 1.9398382 -0.5802882 -0.92624176
H 1.2382233 1.4962118 -0.8900484
