11

O -2.320966 -0.70750904 -0.4144952
C 0.5068044 -0.42335975 1.1135972
O 0.0066778837 1.4459555 -0.629791
C 0.8677709 0.14027652 -1.5261792
C 0.0953621 0.035837933 -0.27888796
C -1.245321 -0.579959 0.0762142
O -0.8044201 -1.0189192 1.2944531
H 0.7906643 1.9034636 -0.28740397
H 0.6804262 0.35852313 1.8567867
H 0.12460915 0.020452641 -2.3338983
H 1.2983923 -1.1747622 1.1296045
