11

O -0.68341850 0.07277829 0.97833052
C 0.33559469 0.88934335 0.54287962
C 0.98088243 0.50033322 -0.72324422
C -0.39144977 -1.29983148 -0.91928320
N 0.65357241 -0.51972348 -1.41976904
C -1.01713767 -1.00610404 0.22159705
N 0.69707107 1.91659929 1.18903151
H 0.14567788 2.03450719 2.03652412
H 1.78582696 1.14987751 -1.06120880
H -0.67623531 -2.16587884 -1.50332229
H -1.83038418 -1.57190116 0.65846431
