11

O -1.1178696 -0.40285867 -1.2237754
C -0.6747352 0.5033288 -0.3825031
C 0.7511386 0.92765677 -0.5002366
C -0.3525039 -1.0787637 0.38883793
N -1.2991945 0.7936538 0.76664966
C 1.5399077 -0.058537334 -0.035547663
N 0.8841641 -1.1846364 0.47837406
H 1.0525653 1.8966454 -0.86679405
H 2.6236198 -0.0741178 -0.0049946504
H -2.2446368 0.41241947 0.7200477
H -1.1624556 -1.7347906 0.65994215
