11

O -0.90629745 0.11629559 0.7710956
C -0.5202976 0.0072656963 -1.554707
C -1.3472276 0.1260748 -0.5147839
C 0.44440088 -0.01746351 1.0002383
N 0.930564 -0.026683547 2.1694229
C 1.2944751 -0.14615914 -0.19625908
N 0.86024827 -0.13646159 -1.3979859
H 0.20291492 0.072850324 2.8742635
H 2.3609245 -0.2520631 -0.0077555566
H -0.89725065 0.017390994 -2.569619
H -2.422454 0.23895344 -0.5739098
