11

C -0.7461825 -0.41242415 -1.7099758
N 0.50281775 1.8318294 0.27279234
C 0.3070551 -0.522351 1.1167943
O -0.975408 0.45534602 -0.70639384
C 0.035418093 0.66587204 0.23845409
O 0.25871053 -1.0379024 -1.8992746
H -0.6375139 -0.917004 1.5039737
H 1.1591038 1.9281297 1.0432763
H 0.7934103 -1.307521 0.5318839
H 0.9486868 -0.23797692 1.9532013
H -1.6460981 -0.4459977 -2.3447313
