11

C -0.52205150 -1.42966121 -1.15517545
N -0.02655158 1.75458567 -0.77689412
C -0.15810593 0.67399548 -0.14910720
O -1.02663987 -0.25455820 -0.73414144
C 0.38227790 0.24728967 1.18620163
O 0.62277032 -1.77964131 -1.09382386
H 0.54063435 2.40796384 -0.24301422
H -1.34707129 -2.02253491 -1.58147691
H 0.88117272 1.08399150 1.67932487
H -0.43765685 -0.10777157 1.81826808
H 1.09122227 -0.57365886 1.04983861
