11

C -1.4718103 0.79423445 -0.4519217
N -0.48015025 -0.086150214 0.12630945
C 0.8409052 0.025266634 -0.12428847
O 1.386439 0.8425638 -0.84172446
C 1.6751251 -1.0251615 0.6109111
O 1.1956344 -1.8622358 1.3296702
H -0.95289046 1.5163158 -1.0840377
H -2.1831684 0.22932789 -1.061637
H -2.0178134 1.3296931 0.33083758
H -0.75156087 -0.83003986 0.7526156
H 2.7592905 -0.9338142 0.41326538
