10

C 0.25989676 -0.62578785 -1.436132
N 0.1119608 -0.07153351 -0.104181215
N -1.0260327 0.40962303 0.36367217
C -0.6638016 0.7860896 1.5770242
N 0.63786924 0.54088485 1.8285209
N 1.1116555 -0.0031078327 0.7473509
H -0.3843298 -1.4996729 -1.5412016
H 1.304625 -0.90799695 -1.5513636
H -0.01582094 0.12854624 -2.1743174
H -1.3360224 1.242955 2.2906277
