9

N -1.32960753 0.05850045 -2.22807628
C 0.65652289 -1.01568370 0.63003666
C 0.52060294 0.08588424 -0.38090899
C -0.51370256 0.10636990 -1.41127440
N -0.01975017 0.34363350 0.96316610
H 0.50574061 0.96249740 1.56884849
H -1.02561168 0.48756211 1.00986280
H 1.39833444 0.67208058 -0.64724125
H -0.19252891 -1.70084424 0.49558698
