9

O 0.8363043 -1.723963 -0.6239626
C 0.27439573 -0.5734695 -0.21513793
N -0.6592319 0.06932312 -0.8967578
N -0.9060814 1.1231787 -0.12473
N -0.21433288 1.212399 0.9893514
C 0.56111354 0.13192822 0.9665961
H 0.4365031 -1.9642311 -1.4688942
H -1.5896388 1.8163271 -0.3827873
H 1.2609683 -0.09149263 1.7563223
