12

N 1.9181186 -0.692428 -0.36151898
C 0.57399035 -0.80067915 0.12232145
N 0.2449806 0.30803493 1.001687
C -1.288576 0.041233916 -0.6780177
O -1.5396769 1.8029767 1.0095025
C -0.84345907 0.7724595 0.5338362
N -0.44864154 -0.87378633 -0.95052314
H 2.0426743 0.19784425 -0.83281326
H 2.0899897 -1.4273405 -1.0425286
H -2.1795986 0.2564883 -1.2592407
H 0.48580107 -1.7394228 0.68516046
H -1.0556028 2.1546195 1.7721347
