11

N 0.11419251 1.0834605 -0.89691764
C -0.1808045 -1.1292193 -0.4747374
C -0.7986632 0.1731334 -0.36537516
C 1.1101376 -0.74984527 -0.25259933
N 1.2620443 0.63219297 -0.16251963
N -1.2349988 0.68970543 0.7848489
H 0.20529085 0.7688848 1.0156085
H -1.6947548 -0.008553493 1.3700702
H -0.6388115 -2.1041 -0.40907833
H 1.9591762 -1.3813317 -0.020130968
H -0.10280829 2.0256732 -0.5891691
