12

C 1.07404 0.1938668 0.7815693
C -0.31636602 0.59209216 0.3495605
N -1.0176868 1.550499 0.8044679
N -0.90767497 -0.17151462 -0.66435343
C -0.3945389 -1.2495606 -1.3401604
O -0.99630624 -1.842552 -2.2061117
H 1.4172245 0.86220706 1.5760542
H 1.7833036 0.2588069 -0.051086627
H 1.0926763 -0.8317113 1.1659851
H -0.5165785 2.0458589 1.5370016
H -1.840684 0.12187736 -0.9297701
H 0.6225912 -1.5298699 -1.0231563
