12

C 0.72175527 0.10847921 0.86579812
C -1.28359223 0.37219307 -0.28998638
N -0.44592347 0.94713072 0.65736272
N -0.56089532 -0.65386103 -0.88736459
C 0.83925733 -0.56156947 -0.51286285
O -2.42042156 0.70055306 -0.54319625
H 1.60678602 0.69350323 1.12085441
H 1.40594230 0.07559552 -1.20400355
H 0.55195832 -0.64590790 1.64533291
H -0.90257747 1.39827889 1.43651116
H -0.82920714 -0.89219438 -1.83118570
H 1.31691813 -1.54220117 -0.45725996
