11

O 1.3965034 1.2559463 -1.6694304
N 0.5590192 0.18429378 -1.4302455
C 0.054645553 -0.04146726 -0.2950678
C 0.13942218 0.62831384 1.0458747
O -0.74917686 -0.3786458 1.5789746
C -0.8593672 -1.0632643 0.31589
H 1.1264287 0.61140424 1.5219649
H -1.8862002 -1.0716485 -0.06430153
H 0.96922404 0.32077125 -2.4564564
H -0.28300127 1.6390359 1.093224
H -0.46749783 -2.0847397 0.35957327
