11

O -1.2729352 -0.17902999 1.9318278
N -1.16862 -0.7677932 0.67278284
C -0.23872942 -0.23092277 0.0066717896
C 0.2942367 -0.4666515 -1.3774748
O 1.257441 0.5863157 -1.1737268
C 0.79273134 0.8566274 0.16338536
H -2.003026 -0.6655225 2.3309283
H -0.39388505 -0.24438436 -2.2004561
H 0.7730431 -1.4370502 -1.5479977
H 1.5635015 0.67586535 0.9205736
H 0.39624164 1.8725463 0.2734857
