12

O 0.87010086 1.9651545 -1.2806494
N 1.0070739 1.4137998 -0.0066910572
C 0.31448314 0.36270356 0.10216436
C 0.1373176 -0.60771316 1.2411801
N -0.56342006 -1.5112612 0.2976719
C -0.5866605 -0.47919768 -0.76983345
H 1.4636196 2.7232928 -1.2415521
H -0.48686084 -0.21481715 2.053921
H 1.0521604 -1.0304655 1.6667984
H -1.4826475 -1.7945158 0.6147106
H -1.5650158 -0.018006109 -0.95564723
H -0.16015089 -0.8089737 -1.722073
