10

C 0.565625 -0.75435174 -1.02327
N -0.7399378 -0.16196825 -1.2958938
N 1.3003201 0.9029671 1.7503973
C -0.9748294 0.6298599 0.9197673
N -1.3777854 0.4078475 -0.39940795
N 0.25692374 0.7431795 1.3492972
H -1.7381771 0.9511178 1.6188359
H 1.3404311 0.02088073 -1.0091006
H 0.582137 -1.2970346 -0.07010112
H 0.7852926 -1.4424977 -1.8405242
