11

C 1.02393297 -0.21539928 0.29665577
N 0.38929699 -0.65011933 -0.98620180
C -0.80059921 -0.17929681 -1.25235089
C -1.10056844 0.63876716 -0.00695609
N -0.08593903 0.32908044 1.03517078
H -1.03612935 1.69553050 -0.30541851
H 1.77894245 0.54568158 0.06369015
H 1.51084944 -1.04701723 0.82115737
H 0.90817714 -1.19496804 -1.66301506
H -2.11532541 0.48004051 0.37267114
H -0.47263696 -0.40229926 1.62459711
