10

O 1.172472 -1.3767879 -0.900546
C 0.30693752 -0.45266962 -0.47500998
N -0.62031615 0.1428211 -1.0749093
C -1.1983892 1.0310298 -0.088793576
C -0.6918523 1.0482197 1.1620555
N 0.44364738 -0.04728898 0.9209564
H 0.9645023 -1.5482744 -1.8298254
H 0.30027077 -0.81121963 1.5804429
H 1.3499323 0.3712271 1.1311522
H -2.027205 1.6429428 -0.42552274
