11

N -0.62816805 -0.7138152 -1.9392974
C -0.32462004 -0.27829966 -0.79895693
C 0.7078388 -0.8747611 0.13271408
O 0.43999273 -0.24181376 1.370281
C -0.13045302 0.99048954 1.0478245
O -0.8487684 0.81089914 -0.17031904
H -1.3321137 -0.12945096 -2.3825288
H 0.58831877 -1.9538598 0.24290349
H 1.7202632 -0.65161973 -0.22997266
H -0.830073 1.2810165 1.8330132
H 0.6377824 1.7612151 0.8943384
