11

N -1.9749738 0.65691644 -0.7361389
C -0.8120924 0.55103064 -0.2294756
C 0.68159705 -0.8357402 0.9135723
O 1.5294421 -0.060003605 0.042304635
C 0.8062806 0.19135325 -1.024789
O -0.5471184 -0.18026261 0.9440322
H 1.3486272 0.9564989 -1.6145128
H 1.1374112 -0.8351909 1.9041431
H 0.5823799 -1.840691 0.48987752
H -2.5728729 -0.09917613 -0.4117149
H -0.17868006 1.4952652 -0.27729854
