9

O -1.6765751 0.07333705 -1.5718426
C 0.86061406 -0.5405599 0.8202993
C -0.21377847 0.40166417 0.58385867
C 1.7384613 -1.334706 1.0382488
C -0.8206902 0.56108433 -0.6998916
N -0.0015576796 1.494413 -0.50593686
H -0.7417261 0.7430714 1.4748714
H -1.6690034 0.6379307 -2.3623955
H 2.5242558 -2.0362349 1.2227883
