11

N 1.8487296 -0.11057652 -1.4369872
C 0.59992766 -0.13306372 -0.8672909
N -0.54662734 -0.24693678 -1.440815
N -1.5029352 -0.066668525 -0.4331761
C -0.8361385 0.09353312 0.65620995
N -1.2996978 0.19881381 1.9415654
O 0.5117901 0.07350634 0.47654048
H 2.5479288 -0.64833266 -0.94223464
H 1.8057886 -0.35143697 -2.4178696
H -0.82421064 0.89142674 2.503203
H -2.3045552 0.2997352 1.960855
