11

N 2.19883161 -0.29763490 -1.23590701
C 1.04190522 -0.12549467 -0.77149337
N -0.13506010 -0.05798492 -1.47051208
N -1.23923919 -0.02656751 -0.61373079
C -0.69964884 0.07671246 0.53912339
N -1.32418029 0.14488424 1.75018852
O 0.66018905 0.05865370 0.55589840
H 2.89946401 -0.29919972 -0.50282143
H -0.23677294 -0.50890356 -2.36434254
H -0.85292051 0.70796354 2.44307544
H -2.31256793 0.32757137 1.67052185
