11

C -0.8809318 -0.7993005 -1.1879015
C -0.12381656 -0.06462035 -0.140627
C -0.26159966 1.1339936 0.46944335
N 0.75989723 1.3039193 1.3952465
C 1.446528 0.22003646 1.2959577
O 0.9844486 -0.66701686 0.39036202
H -1.2576407 -1.753656 -0.80851847
H -1.7318578 -0.19595805 -1.5113108
H -0.25302774 -1.0061688 -2.0603359
H -1.0179672 1.8903666 0.31510365
H 2.335968 -0.06159546 1.8425808
