11

C -0.16393082 -0.28538002 -1.80881161
C -0.12125882 -0.15388512 -0.49382205
C -0.60254091 -0.49124254 1.61436537
N 0.27960397 0.39984804 1.75953886
C 0.71284498 0.73880655 0.40183216
O -0.92700737 -0.90370708 0.35124943
H -1.15654168 -0.98960915 2.40320363
H -0.83277684 -0.98731590 -2.29416388
H 0.48550388 0.31881036 -2.43243124
H 0.53951352 1.80257271 0.20635286
H 1.78659045 0.55110209 0.29268682
