9

O -0.98166382 -1.49987265 0.36551104
C -1.00585887 0.65522878 -0.52162941
C 1.06844114 -0.19182930 0.32913681
C 2.24192548 -0.12466506 0.59613931
C -0.32924406 -0.31787206 0.06643878
N -1.65301792 1.58336684 -0.98003684
H -0.88263114 -1.64851869 1.31652524
H -1.74115420 1.60898548 -1.99513959
H 3.28320364 -0.06482332 0.82305518
