9

O -1.3223201 -0.6625599 0.88128364
C -0.5999947 0.2975731 0.15561835
C 0.8607135 0.1948214 0.33860928
C 2.043343 0.075964466 0.5081146
C -0.92837965 0.23417014 -1.2941104
N -1.2016952 0.15372194 -2.411827
H -1.0005044 -1.5385709 0.6338946
H -0.9486785 1.265569 0.52989995
H 3.0975163 -0.020689232 0.6585175
