12

C 0.3005477 -0.87171584 -0.19290523
C -0.11432792 1.4647998 -0.89354545
N 1.0039939 1.1770992 -0.30717278
C -0.581166 -1.0441331 1.0004451
O -0.94006443 0.53706783 -1.0922307
H -0.36766016 2.4829874 -1.2162688
H 1.676644 1.9230342 -0.15600514
H 1.3589989 -0.9739075 0.019502062
H 0.008569093 -1.390705 -1.0976057
H -0.3237722 -2.0067906 1.4670185
H -0.38311294 -0.25913012 1.734877
H -1.6386501 -1.0386063 0.7338908
