12

C -0.3489726 -1.1034 0.9811162
C -0.2601547 -0.6285413 -0.46744993
N -0.26590565 0.8193982 -0.5855804
C 0.87607366 1.5499238 -0.49684387
O 1.9919182 1.0798154 -0.411297
H -0.34025612 -2.1963167 1.02683
H -1.2707939 -0.74898684 1.4565477
H 0.5065425 -0.7233128 1.5482216
H -1.095562 -1.0178876 -1.0582484
H 0.66934884 -0.98088646 -0.9247093
H -1.1452289 1.3108696 -0.5361694
H 0.6829907 2.6393251 -0.5324172
