9

O -0.24171431 -1.2148619 1.7569087
C -0.18945913 0.12762906 1.335472
C 0.116444744 0.26559237 -0.100479215
C 0.33999643 0.3327677 -1.2830337
C 0.5979806 0.4139336 -2.6397295
N 0.8108971 0.4816292 -3.7817795
H -0.91605896 -1.67415 1.242295
H 0.6036842 0.5984008 1.92164
H -1.1217706 0.6690593 1.5487064
