12

N 0.8587319 -1.7400796 0.56490916
C 0.26627508 -0.5454176 0.16831373
C 0.92889327 0.39354226 -0.6294086
N 0.34799397 1.5079716 -1.0637558
C -0.9191618 1.6968752 -0.69830805
N -1.6535182 0.8816928 0.059491195
C -1.0553511 -0.22675604 0.48609936
H 1.8673613 -1.7380023 0.6065681
H 0.4482101 -2.176185 1.3775175
H 1.9637069 0.23611853 -0.92714983
H -1.4017465 2.6038728 -1.0511744
H -1.651395 -0.8936328 1.1068977
