12

N 1.4196389 -1.0141265 0.84474915
C -2.0465364 1.4318537 -0.25510633
C 0.55880135 -0.27718264 0.093653336
N -1.2412343 -1.0716314 -0.75019544
C -0.05027407 -0.90308523 -1.0934227
N -0.9005591 1.5609206 0.15500402
C 0.19901334 1.0168343 0.5703107
H 0.8267699 1.5384598 1.2880431
H 1.3796707 -0.97977185 1.8516093
H 1.748569 -1.886358 0.45922303
H -2.3940208 1.8637203 -1.1900452
H 0.50016165 -1.2796327 -1.9738235
