12

N 0.31885478 -0.403906 1.5245854
C 0.3916572 -0.51781356 0.016845485
C 1.3044808 0.12151295 0.9285869
N 0.7305815 -1.7516834 -0.6172958
C -0.63417184 0.22386302 -0.76116914
N -1.2816602 1.197138 -0.25302303
C -2.0019896 2.031685 0.27879083
H 2.206707 0.67086905 1.1653941
H -1.6505239 3.0653756 0.28486085
H 1.4892422 -2.2133582 -0.13059053
H -0.06562041 -2.379541 -0.63848686
H -0.80755734 -0.04414166 -1.7984983
