11

O 1.691323 -0.3244388 0.31681928
C 0.6531009 0.43744245 0.99157
C 0.7953742 -0.8850688 -0.54959124
O 1.0230105 -1.5839015 -1.4843035
C -0.42596844 -0.24123009 0.13410573
N -1.33686 0.60262245 -0.58920604
H -0.8379179 1.2028841 -1.2381241
H 0.64387685 0.23131834 2.062307
H -1.9794738 0.043377783 -1.1358818
H 0.76806355 1.5074929 0.79871225
H -0.99452865 -0.99049896 0.6935926
