11

O 1.5227028 -1.1223696 -0.44577155
C 0.24224514 1.0397762 0.15345813
C 0.45721143 -0.26435918 -0.674242
O -1.1785213 0.96239114 0.22340485
C -0.88733315 -0.72555053 -0.18126875
N -1.633458 -1.326073 0.5429372
H 0.7204466 0.9736862 1.1392025
H -1.7819356 -0.08772796 0.8509956
H 0.5678358 1.9513679 -0.3573684
H 0.4306749 -0.047984205 -1.7431778
H 1.5401314 -1.3531568 0.49183023
