11

C 0.50965905 -0.9629473 1.4999053
C 0.16499884 -0.12445617 0.31942797
N 0.63555574 1.0347161 -0.009369282
C -0.03258745 1.3577557 -1.1814913
C -0.87897164 0.3596285 -1.4984301
O -0.76421744 -0.6069367 -0.5403901
H -0.38405806 -1.1953368 2.0867536
H 1.2167037 -0.41303146 2.1242385
H 0.9658655 -1.909922 1.1949506
H 0.1516664 2.2870007 -1.7030648
H -1.5846146 0.17352928 -2.2925305
