12

O -1.260486 -0.6616572 1.2372973
C 0.12887843 -0.48745024 1.1831208
C 0.5829669 0.70345736 0.34461963
O 0.85552967 0.40250012 -1.0456593
C -0.14906776 0.02663563 -1.8276085
O -1.2904373 -0.1837379 -1.4920053
H -1.5817475 -0.6345843 0.32110417
H 0.6601576 -1.3867719 0.82989824
H 0.45528874 -0.29993168 2.211865
H 1.5480629 1.0771031 0.6941557
H -0.1626956 1.5020965 0.40252942
H 0.21354991 -0.05765977 -2.8593166
