12

O 0.50705945 1.2475771 -0.39665148
C -0.5384824 -0.8801764 -0.26939368
C 0.1459161 0.9561241 0.920753
O 0.8877279 0.20584488 1.6472288
C 0.16544667 0.13846941 -1.2112585
O 0.20095143 -1.6671952 0.42983687
H -0.89994586 0.15121114 0.574905
H -1.5079714 -1.2827562 -0.59467316
H -0.31124017 1.8228664 1.4060647
H 0.7890193 -0.85434866 1.1452627
H 1.058043 -0.3242469 -1.6392703
H -0.4965241 0.48663026 -2.0128043
