10

O -1.344004 -0.71933216 0.9686917
C 0.25037223 1.081977 0.9310298
C 0.5459704 -0.43974215 -1.2373564
N 1.435265 0.7424124 0.63286126
N 1.3154513 -0.5060112 -0.09827117
C -0.5681859 0.042137846 0.2507573
N -0.679101 0.028216967 -1.1436323
H 0.9180897 -0.8677716 -2.167479
H -0.054943208 1.9632883 1.4843549
H -1.8189142 -1.3251756 0.37904367
