11

N -0.50976369 -0.86509226 0.30418191
C -0.22102794 0.13948037 1.32439171
C -0.04434587 0.16250893 -0.63408774
N 0.12921366 -0.10673655 -1.95590157
N 0.67619631 -0.99396073 1.22907802
C 0.12840838 1.14844428 0.26798049
H -0.87840197 0.26543935 2.18158755
H 0.37210007 -1.70080386 1.90314752
H -0.41470244 -0.87573555 -2.31529852
H 0.22021638 0.68195540 -2.57777308
H 0.54210706 2.14450030 0.27269340
