11

N 1.0326536 -1.0604951 0.8745335
C 0.28005844 0.09558457 1.3171
C -0.26414362 0.18787536 -0.5704156
N -0.5929869 -0.03595425 -1.8710194
N -0.4012164 -0.85995495 0.44751886
C 0.26554143 1.132881 0.23085696
H 0.96369624 -1.7828414 1.5955967
H -1.2623694 -0.7735583 -2.026704
H -0.700035 0.77271503 -2.4640079
H -0.016020192 0.20893337 2.3574271
H 0.6948217 2.1148145 0.109113574
