10

O 1.6957337 0.58016324 1.0201584
C -0.09294123 0.63435143 -0.54215044
C 1.087536 1.143572 0.09533824
O -1.6932993 -1.0693848 -0.672183
C -0.5972426 -0.55941635 -0.10573388
O -0.09204553 -1.2930304 0.8644763
H -0.58639497 1.1599717 -1.3488466
H 1.4684526 2.1076968 -0.28327468
H -1.9191799 -1.896416 -0.22215472
H 0.72938126 -0.80750793 1.1943703
