10

O -0.12256444 -1.1858816 -1.080499
C -0.06727031 -0.47873813 0.11529585
C -1.3141325 0.37523037 0.3314586
O -1.485258 1.0101064 1.3417369
C 1.1436837 0.44189045 0.14475133
O 1.9288306 0.45139128 -0.77298486
H 0.6744384 -0.9301588 -1.5761017
H 0.020072905 -1.1518697 0.9843481
H -2.022959 0.3762371 -0.5189237
H 1.2451583 1.0917927 1.0309184
