10

N -0.31850854 -1.0022141 -1.5114293
C -0.07470245 -0.44158387 -0.26950723
N -0.034888774 -1.1743643 0.81538355
O 0.31303844 -0.30561444 1.8405029
C 0.452481 0.9215585 1.3367445
C 0.22541663 0.9304306 0.0031744654
H -0.8887672 -0.42930692 -2.1170533
H -0.67074704 -1.9482665 -1.4519492
H 0.7213739 1.6932056 2.0444238
H 0.27530387 1.7561555 -0.6902904
