10

O 0.48278782 -1.7329941 -1.6517738
C 0.082722075 1.0469592 0.4642957
C -0.70134366 0.59597486 1.5622876
C 0.17579857 -1.1555336 -0.4824659
N 0.37907413 0.15062734 -0.61862844
N -1.3712711 1.3272988 0.77679956
H 0.7782682 1.8821725 0.5416689
H -0.8356572 0.011924988 2.4600525
H 0.6734083 0.5545804 -1.5078286
H 0.33621272 -2.6810102 -1.5444072
