12

O -0.09769945 -0.36661857 -1.7735271
C -0.57913756 0.07590301 0.5725651
C 1.6969639 -0.9195562 0.9844196
C -0.7486011 0.50754887 -0.88212377
N 0.84796345 0.07878304 0.92450863
H -1.8113246 0.49305475 -1.1451845
H -0.3895584 1.5443149 -0.9945402
H 1.085767 -1.8335732 0.8102391
H -1.122562 0.7485402 1.2464081
H 0.83864915 -0.3908778 -1.5374526
H -0.9454777 -0.944688 0.70809716
H 1.2250174 1.0071692 1.0865904
