11

C -1.1323676 1.1462263 0.6033295
C -0.22077394 0.029716179 0.20817457
C 0.76226276 -0.014101718 -0.7464076
N 1.2463809 -1.2773277 -0.65602183
N 0.612259 -1.9765143 0.2882943
N -0.2731319 -1.1949465 0.81342995
H -2.1795592 0.8610892 0.45895433
H -0.9350506 2.0413 0.0072928322
H -1.0018196 1.3992692 1.6595274
H 1.1426103 0.709141 -1.4516523
H 1.9791899 -1.7238517 -1.1849209
