12

O 0.47421968 0.39486048 1.72673466
C -0.56134327 -0.24790198 1.70521708
C -0.36379698 -0.84549631 -0.59735906
O 1.21117686 1.07491158 -0.65684773
C -0.29421412 0.51293789 -1.20051925
O -1.07641692 -0.89232229 0.68694323
H -0.99897631 -1.48100551 -1.21778374
H 0.59189708 -1.37562654 -0.43367237
H -1.18474204 -0.37450818 2.59904825
H 1.13043117 0.87189746 0.32697656
H 1.05149402 2.03372817 -0.69846213
H 0.02027056 0.32852517 -2.24027582
