12

O -1.2623346 -0.6635405 1.2346597
C 0.12577821 -0.48573712 1.1848037
C 0.58492076 0.7029322 0.34393844
O 0.854029 0.39982444 -1.044509
C -0.14857697 0.025803566 -1.827848
O -1.28947 -0.18593824 -1.4906993
H -1.5813257 -0.6308505 0.31817484
H 0.66005445 -1.3841755 0.8338652
H 0.4506586 -0.29825246 2.215251
H 1.5519825 1.0717499 0.69325554
H -0.15788493 1.5039957 0.40003705
H 0.21216841 -0.055811565 -2.8609295
