12

O -1.2618154 1.1044805 -0.8686502
C 1.0811749 -0.13959531 0.83526105
C -1.7694191 0.13099197 -0.34479877
O 1.2366024 1.4098037 0.047233567
C 0.28647363 -1.020426 -0.059209894
O -1.1547896 -0.93003994 0.13393119
H 0.50266856 -2.0563197 0.22160529
H 2.1269872 -0.45754728 0.7653533
H 0.37495866 1.522895 -0.4426245
H 0.9477784 1.2956749 1.0563177
H -2.853847 0.026253855 -0.21326551
H 0.4832273 -0.8861719 -1.1311535
