10

C 0.53588516 1.1512903 0.018059513
C -0.9546531 -0.26770008 0.42730212
N 0.71062464 1.0320406 -1.2690098
N 0.4904496 -0.22243154 -1.6587586
C 0.30460683 -0.07023258 0.8835435
C -0.19418441 -0.86817324 -0.723706
H 0.80098754 -0.33495396 1.8179053
H -0.33036804 -1.9406364 -0.85975826
H -1.8809406 -0.60965645 0.8787357
H 0.5175924 2.130453 0.48568675
