10

C -0.22494726 0.9749142 -0.3704533
C -0.6286458 -0.039328635 -1.2367713
N -0.45382717 -1.335642 -0.98695564
N 0.13325927 -1.7132605 0.13954328
C 0.54148066 -0.78770864 1.0062723
C 0.388723 0.58255273 0.8031908
H -0.39167508 2.0182056 -0.61791134
H -1.1184814 0.18253298 -2.1819916
H 1.0131098 -1.1786195 1.9041837
H 0.74100393 1.2963537 1.540893
