10

C -0.5035604 -0.2030745 -0.56452286
C 0.11512867 1.0997944 -0.11287742
N 1.4050521 -0.81863356 0.46849573
N 0.82542735 0.42501977 0.99432963
C 0.61747015 -1.1967795 -0.45256063
C -0.6399569 0.34699553 0.83633876
H 0.15905282 2.1333725 -0.42130527
H 0.76236314 -2.0986814 -1.0380417
H -1.4120213 0.5682608 1.5539346
H -1.3289555 -0.25627404 -1.2637908
