12

O -0.68975186 2.1114268 -1.376228
N -0.9024813 1.5468093 -0.1071584
C -0.22001746 0.47292683 -0.002501177
C -0.2168411 -0.49625105 1.1511436
N 0.77109104 -1.3791041 0.48652565
C 0.7666172 -0.23359556 -0.7982411
H 0.5455464 -0.6730349 -1.7697773
H 0.5241636 -2.3286576 0.24644168
H -1.1707895 -1.0167791 1.2663091
H 1.6654987 -0.8074305 0.11531949
H 0.12236782 -0.12525746 2.121654
H -1.1954036 2.928947 -1.3334874
