12

O 0.874994 1.9619683 -1.2816874
N 1.0074404 1.4115756 -0.008473467
C 0.31190747 0.36612493 0.10297944
C 0.13460183 -0.6064869 1.2413225
N -0.5627581 -1.5130284 0.29609293
C -0.5866283 -0.47865573 -0.7705666
H 1.4665042 2.7228606 -1.2383763
H -0.49035922 -0.21787874 2.0545466
H 1.0513558 -1.0262883 1.6658331
H -1.4831622 -1.7923543 0.61339194
H -1.565981 -0.019020312 -0.95402294
H -0.15791507 -0.8088167 -1.7210399
