11

N 0.56496507 -1.4115765 -1.3635386
C 0.17595656 -0.44018292 -0.45048466
C -1.0225261 0.1042401 -0.108214244
C -0.7134528 1.1310184 0.854244
C 0.62709224 1.117637 1.0133489
O 1.187123 0.15441798 0.21567024
H 1.4338114 -1.8590901 -1.1057471
H -0.15834466 -2.0952535 -1.537676
H -1.9956716 -0.17071605 -0.4849468
H -1.4158999 1.7831563 1.3526628
H 1.316947 1.6863497 1.6146815
