11

N -0.3870025 0.9294014 -2.0943449
C 0.44133377 -0.466587 1.1364124
C 0.37542164 -1.0603253 2.2890089
C -0.631892 0.20093052 -0.9593486
C 0.5264699 0.14106765 -0.018407574
O -1.691605 -0.35752007 -0.75772995
H 0.40562776 1.5460103 -2.158064
H 0.6239015 -2.1141758 2.3923512
H -1.1780777 1.1042416 -2.6946313
H 0.05037514 -0.5279419 3.1784341
H 1.4654475 0.6048987 -0.31368056
