9

O 1.371064 -1.192339 -1.6040497
C -1.5867925 2.7108328 0.7741537
C -0.3551754 0.48034778 1.0765127
C -0.05636173 -0.33929124 0.09990099
C 0.24293372 -1.1764334 -0.8599673
N -1.0247198 1.6807938 0.87938076
H -0.43103516 -1.9800576 -1.1466397
H -0.10539618 0.276764 2.114571
H 1.9454831 -0.46061713 -1.3338625
