9

O -1.68521020 -0.72314022 -1.85890330
C -0.02720448 -0.48335205 -0.38475188
N -0.91420697 -1.21293376 -0.82233785
O -0.34525652 1.11239280 1.94218220
C 0.95943495 0.17466622 0.18591579
C 0.72607930 0.98594437 1.39700491
H -2.31000512 -1.44181918 -2.02265004
H 1.95916571 0.10917052 -0.23015861
H 1.63720318 1.47907146 1.79369887
