9

O -1.5143671 -1.7238247 -1.2463977
C 0.43927163 0.19824149 0.8679454
N -1.5528682 -0.54962415 -0.519361
O 1.4093285 1.5744327 -0.8146449
C -0.5503126 -0.252177 0.12635708
C 1.4246377 1.1493406 0.31673932
H 0.52424335 -0.12210353 1.9009159
H 2.200704 1.4681578 1.0425243
H -2.3806372 -1.7424431 -1.6740782
