11

C 0.16901831 1.6843282 1.0758126
C 0.07350503 -0.122062825 -0.11161854
N -1.076333 0.08225864 0.50174075
C -1.1026714 1.2604191 1.3107896
C 0.46553206 -1.2248474 -1.0244108
O 0.8953699 0.83891624 0.20261796
H -1.8679466 -0.53693825 0.40212017
H 1.3086861 -1.7821401 -0.6078867
H 0.74219894 2.532622 1.4149992
H 0.7671418 -0.8224762 -1.9946861
H -0.3745011 -1.9100795 -1.169478
