11

C 0.5086227 -0.96476185 1.5011345
C 0.16638976 -0.12443433 0.31944937
N 0.6347027 1.0347372 -0.00826401
C -0.03302243 1.360196 -1.1819022
C -0.8778519 0.36078805 -1.5007343
O -0.7604083 -0.60636425 -0.5425316
H -0.38639808 -1.1967179 2.0869026
H 1.2140608 -0.41691574 2.1289527
H 0.96457326 -1.9115328 1.19664
H 0.14991735 2.2900937 -1.701769
H -1.5805858 0.17491157 -2.297878
