11

N 1.3487676 0.5636999 1.8376175
C 0.63981956 0.26539934 0.83473486
C -0.76939696 -0.17673248 0.8560781
C -1.1575828 -0.39503503 -0.39591792
C -0.013707872 -0.10639869 -1.3252524
O 1.0566082 0.29873264 -0.46884704
H 2.2851152 0.8438198 1.5508131
H -1.3303185 -0.2835335 1.7749527
H -2.1299467 -0.7269175 -0.7396811
H -0.23206915 0.7040646 -2.0288968
H 0.3027115 -0.9870992 -1.8956006
