11

N -1.2189733 -1.5120062 1.108129
C 0.039112624 1.0063752 -0.9928936
C -0.58500373 -0.6302746 0.46535206
C 1.2048264 0.9054976 -0.047723446
C 0.8012461 -0.15576714 0.77586496
O -1.0044152 0.0695079 -0.6110463
H 0.31729376 0.8094816 -2.0321076
H 1.3263611 -0.50978005 1.6590201
H -2.153549 -1.6426224 0.72127056
H -0.37885317 2.0168593 -0.9339316
H 1.6519547 -0.3572713 -0.1119342
