10

N -0.91541568 1.22905361 0.94395554
C -0.48980772 -0.01515735 0.57943559
C 0.44906424 -0.04306675 -0.59526887
N 0.21210995 -1.14898478 -1.61062955
C 1.19499505 -1.25672011 -0.84897280
O -0.80136964 -1.03303838 1.16769388
H -0.81671481 2.01663694 0.32651869
H -1.62811691 1.27616871 1.65740500
H 2.00514690 -1.93625621 -0.62241611
H 0.79010868 0.91136412 -0.99772107
