11

C -0.7189446 0.2398745 0.4114909
C 0.4667611 1.0266479 0.51699764
O -1.1562572 -0.13435236 -0.84517217
C -0.3646768 -1.3172436 -0.8881986
C 0.9734097 -1.018274 -0.8654968
N 1.9689612 -0.39536092 -0.6949902
H 0.7562485 1.6459154 -0.32235813
H -0.9456096 1.4056381 0.682985
H -1.0530251 -0.36867726 1.2511379
H -0.8495933 -2.2688422 -0.73506624
H 0.9227262 1.1846741 1.4886707
