14

C 2.06195246 0.55640696 -1.07013819
N 0.20299629 -1.29956657 -0.20582395
C 0.00848419 -0.07340010 0.06420573
O -1.07351040 0.52337826 0.65013598
N 0.94540011 0.88443118 -0.20932581
C -2.10789266 -0.33080493 1.09323468
H 1.76347339 0.38608590 -2.11207509
H 2.53622656 -0.35308750 -0.69876272
H 2.78522642 1.37268125 -1.03008461
H -0.55341728 -1.89214300 0.11228500
H -1.74398757 -1.02694408 1.85909673
H -2.86953800 0.31879501 1.52725107
H 0.59069135 1.82646941 -0.23908688
H -2.54610494 -0.89230176 0.25908856
