14

C -2.3686373 0.19870688 -0.4330328
N 1.365852 -0.32845232 -0.04825092
C 0.027652543 -0.115332626 -0.27120852
O -0.7342874 0.15031497 0.7074793
N -0.5604925 -0.18294363 -1.4324073
C 1.9608041 0.009345491 1.2289193
H -0.064102374 -0.52552533 -2.2507954
H 1.2776121 -0.2992854 2.0227275
H -2.7865014 -0.06986087 0.5312841
H 2.1474402 1.0862666 1.3373733
H -2.3647363 1.2592075 -0.6430039
H 1.9581462 -0.24608774 -0.8589093
H -2.7656143 -0.4094938 -1.2360446
H 2.906864 -0.5268596 1.3458693
