12

O -0.018568639 0.9887135 -1.9451251
C -0.78141165 0.31938055 -1.1221898
C -0.384783 0.43837023 0.32638106
O 0.7880869 1.1951939 0.46777642
C -0.13435514 -0.96033204 0.9005933
O 0.996274 -1.5211363 0.27797207
H 1.6866565 -0.84735936 0.3505118
H -0.9198792 0.40560427 -2.3792253
H -0.9869237 -1.6108253 0.6955794
H 0.9939351 1.557627 -0.4138227
H -1.2315912 0.90676683 0.85300374
H -0.00744002 -0.87200344 1.9885451
