12

O 1.0435579 1.0999877 -1.013501
C 0.60199344 1.0152864 0.3178258
C -0.4448713 -0.08822224 0.4466041
O -1.4883637 0.19093862 -0.4477826
C 0.15563555 -1.4367269 0.11287006
O -0.3341079 -2.1456046 -0.7319763
H 0.23682468 1.1314765 -1.5471296
H 0.16234307 1.9589171 0.672148
H 1.4747771 0.7911688 0.9411353
H -0.8077765 -0.13460866 1.4876815
H -1.6417999 -0.6355337 -0.9368557
H 1.0417874 -1.747079 0.69898033
