12

N -1.1344204 0.49797958 0.5397904
C -0.37172034 0.12577568 -0.65243995
O 1.2113876 -1.4605297 -1.4508486
N 0.8828681 -1.3098192 0.80407625
C 0.6465689 -0.9731662 -0.49150023
C -0.16781959 1.4434605 -0.0019380191
H 1.4885576 -2.0960903 0.9872155
H 0.7114905 1.5974013 0.6168343
H -2.084943 0.7529247 0.29334217
H -0.86206335 0.11685343 -1.6210198
H -0.53328484 2.3253348 -0.5251113
H 0.21337879 -1.0201243 1.5015993
