11

N -0.1018999 -1.1018025 -0.4788232
C -0.2580508 0.025273103 -1.2066772
O -0.80759096 1.016115 -0.57814574
C 0.6228984 -0.28996092 0.62457234
C -0.547051 0.7144626 0.8352505
O 1.5942626 0.24208136 -0.098170884
H -0.18463203 0.12716886 -2.2880528
H 0.5169998 -1.7811341 -0.9083016
H -1.445061 0.27944914 1.2771417
H -0.2525909 1.6517103 1.3017259
H 0.8627154 -0.8833627 1.5194813
