11

N -0.41201124 -0.54983234 -1.466922
C 0.19484805 -1.292386 -0.6414863
O 0.7695073 -0.81848836 0.47290015
C 0.6980389 0.59486145 0.6335061
C -0.72986704 1.080263 0.80335116
O -1.0279752 2.2431846 0.71005315
H -0.78651553 -1.0958668 -2.2363431
H 0.33777943 -2.3750684 -0.6925765
H 1.159967 1.1135479 -0.20995304
H 1.2582632 0.80720705 1.5499421
H -1.4620346 0.29257828 1.0775285
