11

N -0.8699214 -0.9154352 0.14057286
C -0.0016436494 -0.18386646 -0.8291858
O 0.56321484 0.45580763 1.2268019
C 1.2492051 -0.012930823 0.048180886
C -0.75919646 0.4248469 0.7383674
O -0.70054126 1.0495319 -0.55443615
H 0.07122038 -0.47327247 -1.8787366
H 1.7691264 -0.95241046 0.2547559
H -1.4687223 0.82846576 1.4598114
H 1.938209 0.7540198 -0.31249213
H -1.7909511 -0.97475666 -0.29363963
