11

N -0.69415486 0.4045863 1.9838314
C 0.020929888 -0.26280293 1.0143667
O 0.73859835 -1.2126963 1.2421112
N -0.12643617 0.28474572 -0.25164852
C 0.5227647 -0.23100325 -1.3647492
N 0.40563238 0.35261464 -2.4854715
H -0.72517294 -0.08605823 2.8660123
H -1.5486708 0.8737877 1.7263732
H -0.6219588 1.1537514 -0.39477298
H 1.091767 -1.1334678 -1.1412287
H 0.93670154 -0.14345726 -3.1948237
