11

N 0.17778859 0.07533055 0.09244127
C -1.0375049 0.71151274 -0.19474359
O -1.8824191 -0.10878612 -0.81713665
N -1.3424954 1.9161698 0.073339716
C 0.45252696 -1.222948 -0.19044684
N 1.6934874 -1.5328051 0.19332413
H 2.3505745 -0.89892036 0.6453816
H 2.0255768 -2.4658124 0.037856344
H -0.6150156 2.4053063 0.5865908
H -2.677753 0.4290359 -0.9686053
H 0.8552337 0.69191664 0.5419984
