11

N -1.06515718 0.58352248 2.00107997
C -0.15768942 0.09018157 1.25999731
O 0.92431124 -0.49897180 1.76627414
N -0.14391395 0.07179171 -0.14129254
C 0.85949520 -0.44502350 -0.89435706
N 0.57849636 -0.32446370 -2.19427220
H -0.97793525 0.48977238 -0.55470821
H -1.80618064 1.03605443 1.47381616
H 0.81003082 -0.43311135 2.72926618
H 1.23975090 -0.67170115 -2.86294612
H -0.26120779 0.10194893 -2.58285743
