11

N -0.23413064 -0.02002975 0.47960243
C -0.9804063 1.0582612 0.01400591
O 1.0216011 -0.27388352 -1.4572273
N -1.8484633 1.5893631 0.76863766
C 0.72572595 -0.63789546 -0.25706175
N 1.4952401 -1.6535509 0.046335317
H -2.2965932 2.3601973 0.282143
H 1.799583 -1.2638702 -1.2050326
H -0.716707 1.3371373 -1.0080352
H -0.43014297 -0.33108214 1.4206004
H 1.4642935 -2.164647 0.91603214
