12

N -0.9259156 2.0806372 1.7867534
C -0.85623264 1.2746782 0.96301097
C -0.7615118 0.22237997 -0.06712821
C 0.3968636 0.47293717 -1.0837222
N 1.4853704 -0.41157037 -0.6809135
C 1.0049958 -1.1965373 0.19442
N -0.34654856 -1.0540923 0.5088681
H -1.734649 0.13725689 -0.5604332
H 0.0730162 0.21513925 -2.0967464
H 0.7282989 1.5143291 -1.0887203
H 1.573696 -1.9919317 0.6718743
H -0.6373835 -1.2632263 1.4527371
