9

O 0.8370399 -1.7216128 -0.62410766
C 0.27412054 -0.57356405 -0.21534635
N -0.6594998 0.070461564 -0.8981197
N -0.90630966 1.1243652 -0.12401133
N -0.21543261 1.2124348 0.9909471
C 0.559749 0.13086846 0.9671384
H 0.44074774 -1.9651797 -1.4707476
H -1.5902977 1.8170855 -0.3813902
H 1.2598828 -0.094859175 1.7556374
