11

C -1.76108218 -0.25927941 -0.26025320
N 1.06594158 -0.28574561 1.62987419
C 0.45248245 0.04940819 0.58806199
O -0.92909329 0.31640727 0.64062488
C 1.12551217 0.32240942 -0.72108014
O -1.47149761 -1.07168224 -1.08939912
H 0.86574870 1.32583137 -1.07297874
H 0.42316098 -0.38687495 2.41510730
H -2.77104094 0.13991685 -0.08895884
H 2.20189751 0.25182696 -0.56969560
H 0.79797054 -0.40221758 -1.47130268
