11

C 0.58335954 -0.65731597 1.1657258
N 0.2154937 1.2565006 1.1694947
C -0.5339775 0.541487 0.3896459
O -0.4019643 0.81272024 -0.9872911
C -0.81845206 -0.17682219 -1.8131533
O -0.9815441 -1.3359609 -1.5255129
H -0.9588799 0.2576431 -2.8125906
H 0.47835624 -1.3522722 0.33110175
H 0.083385296 -0.97976327 2.0680664
H 1.6334099 -0.4058114 1.315167
H 0.7008133 2.039595 0.69934636
