11

C -0.77271664 0.880252 1.545356
N 0.58482784 0.51902163 1.1775719
C 0.8361404 -0.054119512 0.09509473
O -0.142724 -0.3895756 -0.8388835
C 0.2514392 -1.0276244 -1.9673908
O 1.3763524 -1.335081 -2.2425222
H -0.7887866 1.9535828 1.7554164
H -1.0156825 0.36370882 2.4784625
H -1.5366573 0.64670175 0.7949671
H 1.8401779 -0.33761472 -0.2055459
H -0.6323708 -1.2192515 -2.5925262
