11

C 0.701251 -0.7188846 -0.91642815
C 0.38497624 0.22904713 0.24761067
C -0.6704494 1.2876048 -0.33801988
O 1.361666 0.6639302 0.96014595
C -0.68239677 -0.15327635 1.168193
N -1.4285748 2.0848687 -0.7078489
H -1.2411277 -1.0907274 1.1365932
H -0.20337671 -1.0555851 -1.4326062
H -0.8157757 0.5201219 2.010232
H 1.2432641 -1.5743415 -0.50717014
H 1.3505439 -0.1927574 -1.6207013
