12

N 1.5262408 1.5863061 -0.20785664
C -0.5666243 -1.1361246 -0.8364787
N 0.28172025 -0.19983062 -1.3126616
C 0.45858642 0.67275935 -0.20189223
O -1.6564193 -1.5292646 1.3069152
C -0.8343189 -0.8387469 0.50775
N -0.2044964 0.26166302 0.9049046
H -0.3012211 0.9688628 -1.1864191
H -1.0044909 -1.8966113 -1.4669329
H 2.4096277 1.1076566 -0.34288746
H -1.6471102 -1.094202 2.1695077
H 1.5385059 2.0975323 0.6660511
