12

N -2.1306453 0.563715 -0.078828685
C -0.7862158 0.19862652 -0.04186004
N 0.15415542 0.819539 0.6356362
C 1.3084234 0.16043805 0.30650643
O 2.4947028 0.5386741 0.8306967
C 1.0849961 -0.8687231 -0.5556133
N -0.29911858 -0.83432496 -0.7663056
H -2.2929626 1.3149183 0.58114535
H -2.758593 -0.20488971 0.1166881
H 2.3041945 1.2760487 1.4242944
H 1.731665 -1.610416 -0.99328625
H -0.8106025 -1.3536054 -1.4590735
