10

O 0.12988015 1.75408685 -1.22781958
C 0.11795822 0.41693516 -0.81884891
C -0.06121427 0.31539593 0.67487375
O -0.23776314 -0.96547477 1.25156697
C -0.19060811 -1.99266129 0.42406849
O -0.04822558 1.24468482 1.42351985
H 1.04773929 -0.10981791 -1.08611593
H 0.28959294 2.29878512 -0.44501882
H -0.69596101 -0.12082299 -1.32181343
H -0.35139821 -2.84111118 1.12558730
