10

O 0.8196467 0.9328858 -1.7113771
C -0.018580679 0.81319946 -0.6058794
C 0.20842755 -0.4871906 0.121989794
O 1.0245404 -1.2989587 -0.25704747
C -0.6149476 -0.78699696 1.3656768
O -1.440214 -0.022321098 1.7918694
H 1.3477777 0.12213654 -1.7507803
H 0.1380073 1.6348313 0.10950143
H -1.0801045 0.8577393 -0.89623445
H -0.3845526 -1.7653253 1.832281
