10

O -1.7869905 0.11106333 1.0670536
C -0.5828336 0.12793449 0.4845529
N -0.47485062 -0.36182737 -0.8124262
C 1.4716287 0.314317 -0.053546958
C 1.0274285 -0.13347176 -1.2679158
N 0.5355196 0.52652544 0.9649543
H -1.6740576 0.49325094 1.9488143
H -1.2396086 -0.37168053 -1.4752542
H 2.5084321 0.55301356 0.15127222
H 0.21533239 -1.259125 -1.007504
