10

O 1.59001712 0.32404561 -1.20531799
C -1.36955098 0.51108560 0.60457983
N 0.27940650 -0.92854558 0.32942084
C -1.09084311 -0.71571549 1.09971658
C 0.47886547 0.28228605 -0.46549270
N -0.44580814 1.11846369 -0.32521206
H -2.24864976 1.09288757 0.85646359
H 1.01851787 -1.08455734 1.01419024
H 1.57969343 1.17331255 -1.67008600
H 0.20835158 -1.77326300 -0.23826237
