10

O -1.9640473 0.9902477 -0.18848082
C -0.80630916 0.3508246 0.041696917
N -0.47648025 -0.29809028 1.1184492
C 0.80177927 -0.76468235 0.8577364
C 1.2172774 -0.38422546 -0.3803376
N 0.15634514 0.3471378 -0.9086911
H -2.4919174 0.86350334 0.6122423
H 1.3394722 -1.3499185 1.5903834
H 2.1286223 -0.5465905 -0.93408865
H 0.09525779 0.7917933 -1.8089101
