10

O 1.9632013 -0.33604017 -0.34477398
C -1.6307676 -0.20252897 0.45950294
N 0.14299762 1.1563052 -0.44494808
C 0.6976905 0.060861964 -0.1876294
C -1.2377539 0.983407 -0.057193764
N -0.22046158 -0.92446357 0.3815059
H 2.441146 0.41319534 -0.7289422
H 0.045142833 -1.2250766 1.3188535
H -0.31314707 -1.7634971 -0.19146241
H -1.8880482 1.8378367 -0.20491253
