10

N 1.1805754 0.6226547 1.1475717
C 0.6074636 0.43700975 -0.051705606
C 0.23391561 0.6688489 -1.2767359
O -1.5440108 -1.0532976 0.9902985
C -1.2354059 -1.080706 -0.1795387
N 0.030485023 -0.73772836 -0.6545443
H -1.8993192 -1.4816529 -0.9675661
H 1.4277087 1.5703301 1.3888818
H 0.47674564 0.9488713 -2.2842414
H 0.7218418 0.10567019 1.88758
