10

N -0.5648092 1.1642282 -1.2861172
C -0.15267798 0.24934797 -0.32550114
C 0.6901044 -0.810414 -0.39390144
O 0.69048643 -1.4123977 0.84850496
C -0.15142162 -0.67282856 1.573829
N -0.68456197 0.32305852 0.95277387
H 0.14455143 1.4159993 -1.9593755
H -0.9746846 1.9831533 -0.8615269
H 1.3077745 -1.2655025 -1.1505374
H -0.30476153 -0.9746446 2.6018517
