10

N -0.5025896 0.25648516 -1.5639379
C 0.74462575 -0.8618292 1.4003464
C 0.984506 0.14754806 0.5863641
C -0.083274536 0.8029589 -0.2147092
C -1.3243302 0.057317987 -0.5051333
O -2.291614 -0.5393356 -0.1422727
O 0.55444396 -1.7524978 2.1274958
H 2.0035803 0.51471156 0.54102284
H -0.06344439 1.8907442 -0.2154219
H -0.021903263 -0.5161032 -2.013754
