10

N -1.7057137 0.91805196 0.33601847
C 1.1655583 -1.3026319 -0.11869444
C -1.0251967 0.2598069 -0.6019272
C 1.1978794 -0.03126826 0.33733895
C 0.19089866 0.8730126 -0.09125531
O 1.3001647 -2.398934 -0.44346938
O -1.1122316 -0.78451586 -1.2359954
H -2.3630326 0.30131337 0.82793516
H 0.31602007 1.9411829 0.0139855435
H 2.0356536 0.2239821 0.97606367
