10

N -1.5365944 -1.4237732 0.74635166
C -0.67917526 -0.64249957 0.26706937
C 0.14305508 0.3346598 1.0093771
C 0.92389953 0.96601796 0.13935256
C 0.63741297 0.42186943 -1.2153939
O 1.1002978 0.69763577 -2.2793493
O -0.3409293 -0.5497061 -1.0699899
H -1.9669139 -1.996861 0.020684771
H 0.060614087 0.44987947 2.0828488
H 1.6583333 1.7427776 0.2990488
