11

C -0.34004134 0.9875395 -0.84117
C 0.5965559 0.3715368 0.0783243
C 0.7998609 -1.2061062 1.7810217
C 0.00795509 -0.28162163 1.2025306
O -0.7751455 2.0444398 -0.4157015
N -0.59362173 0.48218498 -2.0842755
H 0.4291062 -1.9352307 2.4963558
H 1.8473879 -1.2562788 1.4890906
H 0.08153821 -0.16451482 -2.4656518
H -1.0388739 -0.1726348 1.4947925
H -1.0147216 1.1306858 -2.7353168
