11

C -0.7304504 -0.16982895 -2.3159354
C -0.16349047 -0.12195538 -0.96895534
C 0.31941795 -0.08944025 0.13313521
C 0.9767213 -0.09880115 1.4393488
O 2.0847337 -0.5636639 1.6114026
N 0.24417226 0.4694731 2.43986
H 0.010760802 0.1534998 -3.0528455
H -1.6042309 0.47874343 -2.4005597
H -1.0318995 -1.1922851 -2.565531
H 0.6117104 0.40086898 3.3764586
H -0.717445 0.7333895 2.3036208
