11

C -0.53214574 -1.0784318 -1.4120349
C -0.016747143 -0.24943255 -0.2872431
N 1.1598345 -0.26014096 0.24873449
C 1.0911616 0.69277996 1.2548137
C -0.14283952 1.2341316 1.2664353
O -0.86955166 0.6396495 0.27878705
H -1.4228119 -1.6384543 -1.1089038
H 0.24387732 -1.7820002 -1.7158126
H -0.80422896 -0.45770738 -2.270669
H 1.9366726 0.91279197 1.8911217
H -0.6432213 1.986814 1.8547709
