11

C 0.41762316 -0.13514188 0.5158461
C -1.0057087 -0.3700581 0.32089043
N -0.24924518 0.2384886 1.5046856
C 1.7865968 -0.20389763 -0.032480333
C -1.770641 0.5848792 -0.52602583
O -1.3808436 1.7029129 -0.7735498
H 1.8337828 0.42101452 -0.9290083
H 2.0168822 -1.2317626 -0.32347828
H -1.4419031 -1.3535956 0.4841943
H -2.7237806 0.19683838 -0.93967307
H 2.517237 0.1503223 0.6985992
