11

C -1.64994842 -0.18564615 -0.99858007
C -0.41375699 -0.88192359 -0.54989055
N -0.31452850 -1.17599000 0.94931451
C 1.37252183 0.78575793 0.85634432
C 0.39489902 -0.25686815 0.48666532
O -2.20131505 0.66607565 -0.33996463
H 0.00624722 -1.63349483 -1.21548566
H 2.27265412 0.68151048 0.24551545
H -2.02917745 -0.48435460 -1.99713573
H 1.63014139 0.71994113 1.91610111
H 0.93226263 1.76499197 0.64711566
