11

O -0.8131723 2.1598432 -0.70340633
C -0.42163426 1.0840564 -0.31045258
C 0.34560385 0.0011112567 -1.0768982
C 0.5432265 -1.0863827 -0.055865355
C -0.015090711 -0.6952463 1.0911735
N -0.5895582 0.58136195 0.96362454
H 1.2821401 0.41908112 -1.4617763
H -0.23918818 -0.3142752 -1.9478278
H 1.0527335 -2.0233524 -0.22963272
H -0.072507635 -1.2114346 2.041058
H -1.0725526 1.0852376 1.6900035
