10

O 0.84675281 1.79299716 -0.15520137
C -0.90003371 -1.10991284 0.24015852
C 0.71870045 0.40961263 -0.19473019
C -0.57622395 -0.18691797 -0.65917518
N 0.94345673 -0.25432972 1.11482595
N 0.06628792 -1.11741837 1.31385045
H -1.73337268 -1.79840036 0.29231522
H 1.53742155 0.04178726 -0.82765133
H 0.18200095 2.14495976 0.45128065
H -1.08499011 0.07762231 -1.57567275
