10

C 1.5552919 -1.7588774 -0.9650363
C -0.21538258 0.45727295 1.1194084
C -0.18378313 0.12505755 -0.29468223
C 0.77382505 -0.9058433 -0.641043
N -1.7817618 2.1667454 1.8557657
N -1.0522025 1.3720627 1.5202457
N -0.9527698 0.708038 -1.1349281
H 0.40460816 0.005602069 1.8779693
H 2.2478807 -2.517112 -1.262134
H -0.7957063 0.34705418 -2.0755653
