9

O -0.24082933 -1.2155701 1.7549658
C -0.18815675 0.12654302 1.3361771
C 0.11300793 0.2638607 -0.10019799
C 0.3352736 0.33249515 -1.2813591
C 0.59624636 0.41613707 -2.6379552
N 0.81350434 0.48457345 -3.7780192
H -0.9134705 -1.6746736 1.2372243
H 0.60550576 0.5988527 1.9191972
H -1.1210812 0.6677816 1.5499672
