9

O -0.69105065 1.8981329 -0.4027863
C 0.23815541 -1.1640188 0.8974613
C 0.3318832 0.9804075 -0.696353
C 0.31042176 -0.20477585 0.1697972
C 0.20618293 -2.312816 1.8489448
N -0.4353857 -2.7905781 0.9543378
H -1.5388021 1.4430814 -0.47238994
H 0.30179316 0.6389597 -1.743461
H 1.2768022 1.5116072 -0.5555507
