9

O -1.3724024 -0.18684207 -1.6337883
C -1.2401639 -0.4511422 -0.25675288
C 0.022393193 0.046415597 0.31370053
C 1.0777969 0.44455954 0.7230461
C 3.2857594 1.2789294 1.5778257
N 2.2453601 0.88810843 1.1782777
H -0.60546756 -0.5469313 -2.0949864
H -1.3307945 -1.5253983 -0.03431542
H -2.0824814 0.05230087 0.2269927
