11

C -0.77307427 0.8807145 1.5439419
N 0.581845 0.51739645 1.1752
C 0.8353081 -0.055498734 0.093514875
O -0.14481367 -0.39055973 -0.8376329
C 0.25318512 -1.0272433 -1.963954
O 1.3776664 -1.3398697 -2.23766
H -0.78775126 1.9546833 1.7484589
H -1.0170567 0.36750665 2.4800146
H -1.536995 0.645072 0.7949352
H 1.8401273 -0.33730063 -0.20373727
H -0.6284409 -1.2149009 -2.5930812
