11

N -1.4027652 0.44588375 -0.18197018
C 0.9462502 -0.76162624 0.61730593
C -1.346154 -0.43987802 0.7060558
C 1.0507048 0.15133555 -0.33037135
C -0.17334233 0.84707606 -0.85784596
O -0.25788555 -1.1165272 1.1768552
H 1.7610203 -1.3246292 1.0592643
H 2.0297813 0.38950834 -0.733054
H -0.3026822 0.6561287 -1.9316468
H -0.0727072 1.935575 -0.7597799
H -2.23222 -0.78284705 1.2351867
