11

N -0.58368003 -0.0063376524 -1.57145
C 0.16870362 -0.16836222 0.8568118
C 0.6780242 1.0377357 0.1517183
C -0.8170319 -0.9124369 -0.49014434
C 0.15474387 1.0083055 -1.2907611
O -1.2067709 -0.3304658 0.7158926
H -1.3511028 -1.8474844 -0.6677208
H 0.19090495 1.9037888 0.6308372
H 0.6310408 -0.6606896 1.7179803
H 0.37412307 -1.189045 -0.24698618
H 1.761045 1.1649911 0.19382241
