11

O -2.0123506 0.9892312 1.3803381
C -1.0797715 0.6134156 0.7261046
N -0.9753443 -0.55033696 -0.013372067
C 0.4086662 -0.8073323 -0.35671756
C 0.94086015 0.629996 -0.32666454
O 0.08039714 1.310643 0.58882016
H -1.6051698 -1.2949357 0.23637924
H 0.907973 -1.4428581 0.38338628
H 0.51010007 -1.2630118 -1.3445786
H 0.8575379 1.1069298 -1.307815
H 1.9671019 0.7082588 0.034119233
