11

N 0.9662933 0.46052328 -2.1431205
C 0.58046895 0.24080628 -0.95718473
C -0.7992897 -0.11893659 -0.64317673
C -1.1525444 -0.34045404 0.6264492
C -0.12319502 -0.2078429 1.6428611
N 1.0967822 0.10413139 1.4172199
O 1.4621212 0.33255234 0.10094575
H 1.9579262 0.69754535 -2.166008
H -1.476549 -0.18693545 -1.4856178
H -2.163897 -0.6086014 0.91616
H -0.34811682 -0.37278834 2.6914718
