11

N -1.0728688 1.4435717 -0.0005297902
C -0.2289398 -0.21401687 -1.6080498
C -0.7541121 1.0718161 -1.2129104
C 0.38282105 -0.24383476 0.8622178
C 0.27378327 -0.9812649 -0.43928057
N 1.2427436 -0.45000947 1.7524241
O -0.59791505 0.7348133 1.0563128
H -0.45438197 -1.8081685 -0.3430924
H -1.1128955 1.764222 -1.9688923
H 1.0990107 0.16542834 2.5549808
H 1.2227545 -1.4825567 -0.6531805
