10

O 2.57331999 -0.35566824 -0.51669171
C 0.27706133 -0.30540592 0.44527064
C 1.48924139 -0.34361301 -0.08362670
O -0.44849800 0.92139763 -1.50305939
C -0.88095412 0.27485206 -0.32488481
O 0.11819607 -0.69917506 1.76299035
H -0.18031390 -1.61879908 1.77097001
H -1.44270234 0.94448151 0.34329919
H -1.56428980 -0.51921742 -0.64576558
H 0.05893924 1.70114759 -1.24850191
