10

O 1.316656 -0.91497964 0.49199933
C 0.4066894 0.13595752 0.36405164
C 0.0070728064 0.4458199 -1.0790805
O -1.3913137 0.18409602 -0.7599107
C -1.0837026 -0.2060807 0.50607175
O -1.8043363 -0.6588177 1.3389084
H 1.3280025 -1.1976827 1.4140232
H 0.68748754 1.0226569 0.94933397
H 0.3870211 -0.28071764 -1.7983328
H 0.14642312 1.4697481 -1.4270642
