11

N 1.8473756 -0.11138693 -1.4385924
C 0.59880584 -0.13016658 -0.8701244
N -0.548033 -0.24158098 -1.4412048
N -1.4994298 -0.06637061 -0.4323635
C -0.8337847 0.09201179 0.65719724
N -1.2979326 0.1939805 1.9429902
O 0.5131181 0.07538115 0.4727659
H 2.5427425 -0.6461651 -0.9371155
H 1.8027455 -0.35493964 -2.418748
H -0.8231021 0.8868843 2.5049055
H -2.302505 0.3023521 1.96029
