11

N -1.3058654 0.31087276 0.37395146
C 0.39936686 -0.90082765 0.1961692
N 1.3204559 -1.9068921 0.12493957
N -0.83159906 2.2096877 -0.49356505
C -0.44497627 0.9601336 -0.36607522
N -0.71976084 -0.8604472 0.8393477
O 0.65494555 0.20923054 -0.59406126
H 2.2814415 -1.598778 0.18448478
H -1.8109901 1.5177907 0.3201902
H -0.6484397 2.7149365 -1.3520539
H 1.1054213 -2.6557066 0.7666725
