9

N 1.1070243 -0.97777605 -2.18873
C 0.8950744 -0.50986224 -1.1534828
C 0.61609256 0.05137981 0.15504046
C -0.70917106 0.6913957 0.38071805
N -0.39197585 -0.5799726 1.0056926
H 1.4905479 0.4244047 0.681787
H -0.76626706 1.5425843 1.0539957
H -1.403819 0.7113004 -0.4556785
H -0.8375064 -1.3534539 0.5206576
