11

O -0.07691029 -0.86798365 -1.52355913
C 0.57008624 0.41535410 -1.54743565
C 0.01210978 -0.13671000 -0.34204582
C 0.29094248 -0.65004144 1.02033783
O 0.63364018 0.43985157 1.87697319
C -1.01565406 0.03132146 0.71093984
O -0.63389672 1.10042581 1.58175878
H 0.02620981 1.19345396 -2.08452465
H 0.60079283 -1.64384198 1.31954922
H 1.64961901 0.38397192 -1.69931729
H -2.05693914 -0.26580146 0.68732345
