11

O -0.53576446 1.0189852 -1.7025017
C 1.0623868 -0.0076708337 -0.6920817
C -0.7753757 -1.0550425 1.022273
C -0.2556196 1.21716 -0.3963031
O 0.22911614 -0.2240944 1.650897
C -0.030435625 -0.04135313 0.28510827
O 0.767552 0.076676 -1.9890999
H -0.2570855 2.226306 0.004039092
H -1.7964978 -0.837789 1.3322909
H 2.0928137 -0.2688984 -0.43728548
H -0.5010899 -2.1042788 0.92266333
