11

O 1.1979206 0.6365071 -1.968667
C 0.16372484 0.68535405 -1.3566332
C 0.04294419 0.16382335 0.052564967
C 0.8656243 -1.0059646 0.4399869
O 1.1999652 0.28826073 0.8681541
C -1.2511191 0.36653456 0.77680796
O -2.2873135 0.60449445 0.20794737
H -0.77086395 1.0978314 -1.7824792
H 0.49745294 -1.6827365 1.2112204
H 1.5157909 -1.4251307 -0.32672122
H -1.1741263 0.27102643 1.8778187
