11

N 0.65873370 1.34331892 1.43948278
C 0.30841090 0.61002548 0.46557711
C -0.47573817 -0.69032470 0.41733419
N 0.09572431 -0.00952134 -1.73710032
N -0.70371633 -0.86009989 -1.02073277
C 0.61482165 0.86345398 -0.94886206
H -1.42524960 -0.61885479 0.95784296
H 0.11754709 -1.51238535 0.83927292
H -0.69538942 -1.79031361 -1.40831539
H 1.21072708 1.68393037 -1.32726723
H 0.29412865 0.98077055 2.32276718
