10

C -1.19894277 2.37748412 1.99849387
C 0.85076864 -0.78972592 -0.73848122
C -0.45980687 0.49021098 0.45367896
C -0.45466838 -1.18267978 -0.84134604
N -1.26860477 -0.37467389 -0.08940612
N -0.83444888 1.51128427 1.29394895
N 0.83895027 0.29764369 0.10463226
H 1.62702749 0.84662468 0.40497884
H -0.86128868 -2.00385631 -1.41462643
H 1.76101378 -1.17231145 -1.17187269
