11

N 1.77862951 -0.31065693 0.15111783
C 0.56577679 -0.04419814 0.91126101
C -0.48423687 0.11100898 -0.16575977
N -1.78035360 0.41000293 0.06526239
C 1.38850005 -0.27971825 -1.06971367
N 0.03121291 -0.03317457 -1.34764208
H 0.67549716 0.86932639 1.50581676
H 0.34576600 -0.87079699 1.59525861
H -2.17769589 0.25709271 0.97829282
H -2.40986844 0.33172041 -0.72018883
H 2.06677276 -0.44060646 -1.90370453
