11

N 1.5665724 0.0451389 0.9092197
C -0.37987924 -0.062039737 -0.3551444
C 1.6352636 -0.6736789 -0.15010567
N -1.6330295 0.158978 -0.8062018
C 0.20172156 0.5519862 0.8983724
N 0.49786475 -0.7933518 -0.97001946
H -1.9517146 -0.4281318 -1.5632306
H -0.3343454 0.24554875 1.8029449
H 0.19657086 1.646558 0.85423374
H -2.3396146 0.5094238 -0.17945446
H 2.54059 -1.2004316 -0.44061443
