9

N -0.26049104 -0.008090593 -1.8479526
C -0.635033 0.51372075 -0.7303404
C -0.13648048 0.20721509 0.55350554
N 0.79482573 -0.6513292 0.97909373
N 0.005268411 -0.40458795 -2.872162
O -0.7875439 0.9619416 1.3652872
H -1.2951459 1.3105956 0.24479698
H 0.99807346 -0.70101017 1.9648893
H 1.3165268 -1.2284551 0.34288266
