9

N -0.20074076 -0.99075875 -0.71297136
C -0.21868575 0.31265327 -0.34429407
C 0.34634799 0.92082994 0.75532360
N 0.96183792 0.12679463 1.58036642
N 1.53018599 -0.43058704 2.38543332
O -0.87615187 1.06125153 -1.24047827
H -0.80668831 -1.28072313 -1.46331494
H 0.07977189 -1.68966834 -0.04626123
H -0.81587689 1.97020772 -0.91380303
