9

O -0.84659288 -0.82976583 -1.36571436
C -0.16883364 -0.29064757 -0.32667918
C 0.48824372 -0.85089950 0.69624100
O 1.08057952 0.16599700 1.41341405
C 0.82432467 1.38600243 0.88651923
N 0.05275767 1.07912572 -0.18798268
H -1.77851949 -0.57389595 -1.31362728
H 0.63093778 -1.86541130 1.02990041
H -0.28289735 1.77949515 -0.83207101
