11

N 0.104799576 0.7117202 -1.719815
C -0.0037635507 0.16810018 -0.436564
C 0.88899857 -0.50519764 0.36917043
C 0.1281027 -0.8589695 1.5078586
N -1.1195087 -0.44017363 1.4315275
N -1.1803753 0.18462074 0.23470488
H 1.0491146 0.63152945 -2.073851
H -0.19102664 1.678329 -1.7738097
H 1.9318616 -0.7028907 0.16863471
H 0.45714068 -1.3978511 2.3857207
H -2.0653434 0.530783 -0.09357693
