10

O -2.092573 -0.3886026 1.0457078
C -0.6834405 0.52713966 -0.71029294
C 0.25869325 -0.18195677 0.028309772
O 0.021868309 -0.860932 1.0410656
C 1.7296209 -0.011440907 -0.33869836
O 2.101682 0.11905797 -1.4721417
H 2.4055557 -0.06487249 0.5343544
H -1.3995224 1.0916421 -0.12544954
H -0.5004796 0.7799435 -1.7496345
H -1.8414048 -1.0099784 1.7467796
