10

O 0.82176787 0.93163896 -1.7095933
C -0.018855918 0.81403244 -0.6043096
C 0.20641641 -0.4880792 0.122709975
O 1.0210742 -1.300227 -0.2614133
C -0.614139 -0.7858096 1.3639346
O -1.4395297 -0.022443146 1.7917267
H 1.3467993 0.1198121 -1.7495618
H 0.13844083 1.6351507 0.11214122
H -1.0794185 0.8603947 -0.8968531
H -0.38255534 -1.7644701 1.8312182
