10

N -0.785407 -0.68479043 0.4481354
C -0.82702166 -0.4632494 -0.9258973
C 0.277945 0.030625055 0.9854737
O 0.6043211 0.06570102 2.1459477
C 0.8774266 0.71796143 -0.23863271
N 0.07396679 0.31168187 -1.388619
H -1.4073983 -1.2665324 0.98534733
H 0.8564395 1.8050826 -0.11684186
H 1.9238349 0.42332494 -0.36858794
H -1.5941069 -0.9398047 -1.5263252
