10

N -0.51513560 -0.10458876 1.00514871
C -0.36702770 0.94978224 0.11204453
C 0.12907866 -1.22529917 0.48767963
O -0.79946710 2.06768910 0.24520614
C 0.44907588 0.32584209 -1.01707886
N 0.69584383 -1.06431093 -0.64336858
H -1.00819338 -0.04180595 1.88084609
H 0.12434707 -2.15568886 1.04480710
H -0.09922561 0.38074669 -1.96230733
H 1.39070394 0.86763310 -1.15297748
