10

N -1.2557346 0.82348526 0.11557407
C 0.8106304 -0.16593023 0.11736629
C 0.12179467 1.0359749 0.4273898
O 2.0679436 -0.048231773 -0.1003077
C -1.3359646 -0.40403765 -0.25236455
N -0.103671804 -1.0952525 -0.2411462
H 0.3365877 1.5754672 1.3451978
H -2.2390003 -0.9175603 -0.5580991
H 0.09681911 -1.9586596 -0.7198196
H 1.5005956 1.1547446 -0.13379072
