10

C 0.8738117 -0.39463526 -0.2529035
C 0.3491302 0.37945512 0.92955303
N -0.99676234 0.4698037 0.29684177
C 0.24106817 0.97011304 -0.35840848
N -0.10153121 -1.4135109 -0.6406577
C -1.179542 -0.8483161 -0.29233637
H 0.4174623 1.9509323 -0.7761556
H 1.9295015 -0.576469 -0.42327157
H 0.647598 0.7150998 1.9128258
H -2.1807368 -1.2524726 -0.3954875
