10

C 0.10863446 0.14016788 1.04809281
C 0.88650335 0.58194409 -0.05605972
N -0.53656036 1.00696204 0.02227378
C -1.21967097 0.05431168 -0.84016246
N -0.66271378 -1.08104612 -0.90050742
C 0.47776682 -0.86884644 -0.00942383
H 0.13464767 0.28134005 2.11952150
H 1.75707521 1.20857123 -0.18673881
H -2.12347183 0.35626346 -1.35818061
H 1.17778922 -1.67966764 0.16118497
