9

N 0.059311163 -0.43731225 -1.2218685
C 0.26779 -0.2501427 1.0465593
C 0.3939204 -1.0610921 -0.110069655
C -0.085013196 1.0418476 0.6776703
N -0.27740538 0.8088945 -0.7631826
H -0.273001 1.5649966 -1.4367145
H 0.7030515 -2.098587 -0.16973118
H -1.2326252 1.0035158 -0.08607551
H 0.44397175 -0.57212055 2.0634124
