11

O -1.5045538 -1.0398016 0.3785643
C -0.16741681 -0.7716357 0.06685077
C 0.030330634 0.2334189 -1.0926986
N 0.76159334 1.0775851 -0.14615554
C 0.5047612 0.30295974 0.9487451
O 0.67949057 0.44142127 2.1328995
H -1.5645311 -1.1276224 1.338439
H 0.4364161 -1.6827164 -0.036870684
H 0.63023055 -0.114800744 -1.9368526
H -0.91590846 0.6602999 -1.4337314
H 1.1095879 2.0208917 -0.21918981
