9

O -0.7390468 -1.1028214 -1.6761533
C 0.87728757 0.4325579 0.9637818
C -1.1629734 -0.3403717 -0.56995857
C 2.8338 1.1467465 2.3439245
C -0.0601011 0.08701054 0.3010599
N 1.9093937 0.81149966 1.6959364
H -0.0795728 -0.599068 -2.1676397
H -1.7319256 0.54983705 -0.880243
H -1.8468614 -0.9853905 -0.010708196
