9

O -0.96784025 0.8874104 -1.5975115
C 0.9143946 -1.0083195 0.6028946
C 1.7230905 -2.1864045 1.0634861
C 0.3453858 -0.025351036 0.19058177
C -0.37264276 1.1380734 -0.34738454
N 0.7170004 -2.3896117 1.6777825
H 0.33641285 1.957538 -0.49448514
H -1.5885462 0.15509975 -1.4980047
H -1.1072549 1.4715649 0.40264094
