10

O 0.6785562 -0.31336427 2.008957
C 0.30665863 -0.068605684 0.7518215
N -0.76262456 -0.85416436 0.24704628
C -0.06560343 0.54646623 -1.2672623
C -1.0809257 -0.5521941 -1.0121977
N 0.7645778 0.7683558 -0.075752944
H -0.58490264 1.4698609 -1.5463215
H -1.2205865 -1.562384 0.80377173
H 0.55846137 0.27416605 -2.1267056
H 1.4063889 0.2918634 2.2166438
