10

O 0.12275912 -1.33996293 1.66852429
C 0.07936568 -0.45712808 0.66986325
N 0.48827407 0.73719105 0.63152684
C -0.52212205 0.03085609 -1.49140853
C 0.14811748 1.16167670 -0.73311078
N -0.51102310 -0.90457853 -0.54112650
H 0.54335163 -0.90046428 2.42292316
H -0.51714410 2.03167690 -0.70609024
H 1.04754847 1.48037682 -1.27320447
H -0.87912723 -1.83964368 -0.64789702
