10

N 1.3131638 1.3432492 0.4182156
C 0.26781097 0.91195554 -0.37608063
O -0.15913454 1.5231555 -1.3193564
N -0.27296925 -0.30946523 0.08567759
C -1.2199217 -0.99337417 -0.5970298
O -1.4975451 -2.0581532 0.17247182
H 1.8930341 0.6622024 0.8826256
H -2.168203 -2.5677228 -0.29574102
H 1.8097693 2.1341014 0.03275566
H 0.033995405 -0.64594877 0.99646175
