10

O 0.21450932 2.2114985 0.39299622
C 0.11841825 0.8830761 0.16287102
C -1.003539 0.1945632 -0.21491973
N -0.5704633 -1.1175623 -0.3126393
C 0.7439433 -1.1406299 0.0018831084
N 1.1939471 0.05908454 0.29582503
H 1.130691 2.3752832 0.65441024
H -2.0200033 0.4921738 -0.41292602
H -1.1367567 -1.9082985 -0.5716643
H 1.3292533 -2.0491884 0.0041638566
