10

O 1.4967878 -0.13508669 -1.4294583
C 0.69843024 -0.013827128 0.8475425
C 0.4419651 -0.023965621 -0.5902619
N -0.773224 0.087507226 -0.96804833
C -1.9098008 0.418248 -0.5229012
N -0.3016202 0.014103537 1.6422971
H -2.596535 -0.43046376 -0.4022126
H 0.005538774 0.07844349 2.6101227
H 1.1894132 0.013006508 -2.333247
H 1.7490448 -0.007965581 1.1461672
