10

O 0.76256308 -1.54690585 0.81757057
C 0.28561019 -0.41891994 0.21480592
C -1.11042631 -0.50405416 -0.22766726
N -1.69976328 0.50260505 -0.74126868
C 1.63227373 1.61148796 -0.34013932
N 0.97818821 0.63245324 0.05692763
H 1.62910775 2.44547625 0.37720217
H -2.64794454 0.24361526 -1.00941094
H -1.54629276 -1.49840219 -0.07876895
H 1.71668390 -1.46735538 0.93074899
