11

O 0.66412926 -0.7841288 2.1350005
C -0.22983955 1.0223762 0.7044764
N 0.27917624 -1.0540503 -0.12580027
C -0.05523553 -0.20222236 -1.2579373
C -0.3032642 1.1854521 -0.7644869
C 0.30863926 -0.3725207 1.0546805
H 0.74562377 -0.15750091 -2.012695
H -0.959018 -0.5326238 -1.7939054
H 0.23301129 1.8463185 1.2563487
H 0.61636513 -2.0020788 -0.1888958
H -1.2995876 1.050979 0.9932151
