11

O 1.2554089 -0.65954036 -2.1059644
C 0.6226835 -0.34868652 -1.1164047
N 1.1404732 0.032408226 0.09969903
C 0.12865622 0.33939934 1.082422
C -1.1400827 0.09423483 0.3065864
C -0.8607316 -0.29188827 -0.93660706
H 2.1326597 0.08335064 0.25888988
H 0.19238167 1.3770897 1.4328502
H 0.19564034 -0.31461728 1.9613974
H -2.1197073 0.2287911 0.7515572
H -1.547382 -0.54054165 -1.7344261
