11

O -1.4757836 1.6290361 1.2705473
C -0.7531981 0.8426682 0.6926109
N -0.75827247 0.5594978 -0.65244836
C 0.22323206 -0.42671657 -1.0338571
C 0.87522393 -0.74379385 0.28744388
C 0.3256884 -0.026979081 1.2645534
H -1.3982687 1.0090983 -1.285707
H 0.94902843 -0.031221619 -1.7559248
H -0.2368481 -1.3190243 -1.478458
H 1.6788915 -1.4672412 0.3734313
H 0.5703066 -0.025323644 2.3178086
