11

C -0.9361176 1.3008109 0.29651737
N -0.08745264 0.15988839 0.026607692
C -0.38285932 -1.1475044 0.006263395
N 0.6946237 -1.8555964 -0.2779163
C 1.6384007 -0.8958457 -0.4235585
N 1.2201778 0.33919698 -0.25055876
H -0.5758539 1.822381 1.1854924
H -0.91145116 1.9795785 -0.5587003
H -1.9567611 0.95030946 0.46162298
H -1.3731719 -1.5386027 0.19951925
H 2.6704657 -1.1146163 -0.6652891
