10

C 1.2956554 -0.2551675 -0.07512021
C -0.11563661 -0.048358947 0.15589187
C -0.88705695 0.6100745 -0.8665759
C 2.4676723 -0.4358784 -0.25262362
N -2.1328435 0.68432707 -0.42616892
N -0.74257636 -0.41117474 1.2195091
N -2.651141 0.33799848 0.5607723
H -0.17310123 -0.87502474 1.9205731
H 3.5118034 -0.59671867 -0.41321614
H -0.5727755 0.989923 -1.8230417
