10

C -0.9342558 0.37744418 2.368111
C -0.476632 0.20931853 1.2670068
C 0.06551595 0.008728822 -0.034449875
C 1.3403311 0.12004646 -0.5502152
N 1.3066869 -0.1984441 -1.8672891
N 0.08977769 -0.4992464 -2.2010267
N -0.66463876 -0.37839648 -1.1119319
H -1.3305537 0.5322308 3.3496437
H 2.2556486 0.40234873 -0.05545858
H -1.6518798 -0.5740305 -1.1643902
