10

C 0.56217426 1.1943914 -0.30380848
C 0.015619239 -0.87873864 0.8583786
C -0.21720935 -0.030874893 -0.2981606
C 1.1920788 2.2182562 -0.335304
N -0.6470458 -1.9989103 0.9386066
N -1.2219385 -2.9700444 1.0010089
N -1.0464543 -0.36336276 -1.2141595
H -1.0775281 0.35043967 -1.9424422
H 0.69280297 -0.6524687 1.6671438
H 1.7475007 3.1313133 -0.3712631
