12

O 1.1091744 0.61342317 -0.45892495
C 0.12590417 1.4562459 0.07831161
C 0.85129994 -0.6365518 0.15932049
O -1.2827601 -1.34403 -0.84406686
C -0.6807389 -0.6887375 0.22345066
O -1.041349 0.6773622 0.23247401
H -0.97406185 -0.91838646 -1.6552278
H -1.0581449 -1.1821904 1.125098
H 0.44685736 1.8508242 1.0548437
H 1.2975309 -0.6657534 1.1647962
H -0.06328092 2.2737997 -0.6227402
H 1.2695692 -1.4360054 -0.45733494
