12

O -0.83487655 0.94554445 -0.07872961
C 0.50948287 -0.87438431 0.36217686
C 0.43462233 1.34052487 0.39589538
O 1.31144887 0.27521944 0.14671032
C -0.85663883 -0.46188114 -0.20132264
O -1.07318771 -0.83203163 -1.52326312
H -1.69877992 -0.87457016 0.36381906
H 0.94298009 -1.72135839 -0.17546076
H 0.44919177 -1.10329182 1.43685008
H 0.38334167 1.55436202 1.47476602
H 0.77916642 2.22062163 -0.15399362
H -0.34675131 -0.46875497 -2.04744755
