12

O 0.23208986 -1.2790962 -0.37266108
C 0.12774315 -0.35780272 -1.3633026
C -0.65404254 0.46788782 0.86393017
O -0.79958755 0.8862155 -0.4829675
C 0.4577207 -0.59563935 0.86141354
O 1.0574465 0.5067511 -1.6031137
H -1.6038258 0.035674483 1.1967311
H 0.26986462 1.2331884 -0.9617014
H 1.4569958 -0.14778769 0.8600589
H 0.3634087 -1.3232095 1.6671377
H -0.4051274 1.3219205 1.5027331
H -0.50268614 -0.7481023 -2.1682584
