10

O 0.038660936 -2.5503025 0.5157575
C -0.23769018 -1.9914278 -0.50959086
O -0.2411426 -0.66773933 -0.6984694
C 0.13209283 0.095086 0.46166846
C 0.102345645 1.5119439 0.111105956
C 0.08976951 2.686669 -0.13627504
H -0.53068745 -2.488643 -1.4473002
H -0.56463075 -0.12046127 1.2776353
H 1.1337867 -0.20538782 0.7890673
H 0.07749546 3.7302625 -0.36359888
