10

N 0.61005706 -0.17534861 3.3017786
C 0.35442337 -0.03043106 2.1849158
C 0.041243717 0.13439344 0.7967231
N -0.6550519 1.1215123 0.28671798
C -0.7027518 0.86461383 -1.0533744
C -0.026170252 -0.29075915 -1.3504211
N 0.4500085 -0.7534549 -0.15361656
H -1.2228898 1.5253348 -1.7323673
H 0.15440829 -0.80937654 -2.278178
H 0.9967226 -1.5864842 -0.0021779316
