11

N -0.26786375 -0.3535965 -1.830192
C 0.23556614 1.2058195 0.9431784
C -0.03192438 -0.16953014 -0.5455678
O -0.9792011 0.66914135 0.5541157
C -0.34809038 -1.4237976 0.044453286
O 1.0557272 0.5355092 -0.030249488
H 0.5310485 0.942467 1.9684072
H -1.2978781 -1.8816416 -0.20630154
H 0.3583699 -1.9540417 0.6813107
H 0.44386178 0.13890916 -2.377889
H 0.30038413 2.2907615 0.79873455
