11

O 0.12165473 -0.6112394 -2.7363486
C -0.2075075 0.7472776 1.9123807
N -0.17140412 0.3584076 -0.6857969
C -0.21820702 0.33305666 -2.0701876
C 0.25333464 -0.50205445 1.4599514
C 0.255957 -0.6619367 0.08342075
H 0.5821056 -1.5495521 -0.45058188
H 0.6028737 -1.3427793 2.0616481
H -0.45409635 1.1532831 -0.09212296
H -0.60411245 1.2766767 -2.494494
H -0.16059813 0.7988603 3.012131
