11

O -0.27276084 0.788662 2.622242
C 0.82591605 -0.75042623 -2.4211714
N -0.54120445 0.6507785 0.3558737
C 0.5790401 -0.1057901 0.10394193
C 0.7814136 -0.7239906 -1.1258833
C -0.89479244 1.0663489 1.6280228
H 0.568577 -1.6616684 -2.9608388
H 1.220873 -0.27335832 0.96057254
H -1.8059356 1.6901108 1.627634
H -1.1051893 0.9370056 -0.4328215
H 0.64406323 -1.6176722 -0.35757202
