11

O 1.45539302 -0.97185465 -2.19393412
C 0.50124518 -0.25472425 -2.03176936
N -0.02291640 0.06418528 -0.78962518
C 0.46417325 -0.38461590 0.38372771
C -0.15585470 0.01566482 1.55664993
C -1.25661651 0.87384886 1.38419153
H -0.05590563 0.22196070 -2.85744008
H -0.83645049 0.67617100 -0.62281257
H 1.32976782 -1.03690507 0.31548055
H 0.25617584 -0.36186488 2.49405961
H -1.67901162 1.15813416 2.36147154
