11

O 1.7501937 -0.9217341 -1.8338898
C 0.7318315 -0.26869798 -1.9179311
N -0.033983972 0.085001856 -0.8552014
C 0.33948418 -0.32041982 0.4893503
C -0.57691926 0.2522387 1.4745018
C -1.3418682 0.72429764 2.2691681
H 0.32714698 0.10347681 -2.8788693
H -0.8779668 0.6185757 -0.9950331
H 0.32995263 -1.4150566 0.56521326
H 1.3657646 0.0041319537 0.6952993
H -2.0136356 1.1381859 2.9873915
