10

O 0.031006392 -2.5521305 0.51911044
C -0.2419825 -1.9920852 -0.5076537
O -0.24006034 -0.6683097 -0.6949515
C 0.13544866 0.094635 0.4634776
C 0.103560224 1.5115966 0.10948909
C 0.08956773 2.6852012 -0.14233817
H -0.5331014 -2.4873855 -1.4465307
H -0.56005085 -0.11860835 1.281469
H 1.1383659 -0.20313272 0.7880125
H 0.07724613 3.7302191 -0.37008455
