11

O -0.8146737 2.16108 -0.700099
C -0.4214041 1.0856392 -0.3103198
C 0.3470709 0.0025741057 -1.0768898
C 0.54287916 -1.0853648 -0.056462727
C -0.016477576 -0.6951534 1.0909004
N -0.5878766 0.5780402 0.96316695
H 1.2841738 0.42066467 -1.4612348
H -0.23806068 -0.31215164 -1.948474
H 1.0503956 -2.023681 -0.2312912
H -0.07535096 -1.2117691 2.0401833
H -1.0706756 1.0801224 1.6905208
