11

C -0.2608112 -0.91787875 1.2874095
C -0.3971866 -0.8313562 -1.1395618
C -0.39697438 -0.0024441476 0.14562888
O 0.24786277 -0.53529733 -2.1075132
C 0.6572063 1.1016871 0.14220265
N -0.14787498 -1.6532129 2.1701548
H 0.5019834 1.7531362 -0.7213342
H -1.0559547 -1.723461 -1.1190064
H -1.4034768 0.435974 0.21782532
H 1.6625248 0.67619824 0.06858156
H 0.5927014 1.6966552 1.0556134
