11

C -0.4380408 -1.3799047 -0.5693871
C -0.5136806 0.015329522 0.036611915
C 0.8419304 0.64461225 0.2268091
O 1.8972995 0.14236334 -0.054552387
C 0.81108844 2.0095305 0.820973
N 0.78217745 3.067569 1.2813225
H 0.047216933 -1.3578072 -1.549241
H -1.4450871 -1.7887701 -0.69041234
H 0.13664313 -2.0558903 0.06885849
H -1.0113945 0.0063982382 1.0155021
H -1.1081529 0.69656956 -0.5864844
