11

O -0.52003452 2.16227756 -0.15469269
C -0.26468242 0.99356251 -0.01415385
C 0.31335346 0.07667896 -1.08420608
C 0.09684889 -1.25439371 0.92785118
C -0.43475408 0.12634289 1.23159058
N 0.46974647 -1.17801192 -0.33311538
H 1.26582951 0.45804636 -1.46488434
H -0.37769837 -0.03020904 -1.92935826
H 0.86534749 -1.98962171 -0.79517158
H 0.07725086 0.56793590 2.09470871
H -1.49120725 0.06739274 1.52143192
