11

O -0.8120056 2.1618514 -0.69786924
C -0.41969973 1.0849884 -0.3106515
C 0.3451503 0.0014644702 -1.0765991
C 0.5431439 -1.0862375 -0.057419404
C -0.01597891 -0.6955347 1.0912304
N -0.5890777 0.57879055 0.9632079
H 1.2833408 0.416999 -1.4622161
H -0.24255945 -0.31231648 -1.9459043
H 1.0535682 -2.0211494 -0.23301034
H -0.07418298 -1.2102256 2.0405915
H -1.0716988 1.0813704 1.6886404
