11

C 0.68108815 1.5847486 0.5585662
C 0.42711526 0.48005822 -0.091297336
C -0.8543188 -0.24532165 0.29022914
C 1.2044811 -0.08759426 -1.2523576
O -1.4233267 -0.95571214 -0.51124275
N -1.2902877 -0.03397832 1.5568957
H 1.982792 0.5971383 -1.5907326
H -2.1547585 -0.4743541 1.8383472
H -0.73831147 0.46375427 2.2328887
H 1.6632549 -1.0397075 -0.96354806
H 0.502272 -0.28903148 -2.0677488
