11

N -0.22441364 0.75276231 1.15511018
C 0.57146642 -0.33457728 0.72128050
C 0.26378555 -0.62246511 -0.74997520
N 1.41434791 -0.99141287 1.39296379
C -0.88707803 1.12914493 0.11151816
N -0.62583107 0.48807104 -1.06508509
H -1.60821256 1.93991483 0.13192019
H 1.45462190 -0.61778292 2.33953887
H -0.23624295 -1.59017452 -0.86222276
H 1.17236004 -0.61092788 -1.35831387
H -1.29480365 0.45744742 -1.81673490
