10

O 2.3647013 -0.39603198 0.2749313
C 1.1743693 -0.19564293 0.13521758
N 0.3312684 0.57389826 0.92293423
C -0.97395796 0.5511077 0.43588653
C -0.9764412 -0.2259078 -0.66197634
N 0.32678628 -0.6802047 -0.84876466
H 0.6597104 1.0660151 1.7347374
H -1.7768801 1.0874717 0.91463435
H -1.7819096 -0.4970829 -1.3249867
H 0.6523533 -1.2836224 -1.5826135
