10

O 1.34170436 -2.12749523 -0.00264938
C 0.57979393 0.97132301 0.22771337
N -1.39555058 -0.36334918 0.06918171
C -0.86303606 0.70028484 0.50740459
C 1.08062516 -1.16239843 -0.67128695
N 1.39364801 0.15698669 -0.29656404
H 0.94466294 1.96960227 0.48665131
H -2.38516550 -0.41242248 0.31538885
H -1.39107687 1.47906016 1.07138869
H 0.69439472 -1.21159161 -1.70722795
