10

O -1.2849061 -1.8652143 -0.77079344
C 0.7043651 0.44899434 0.77561843
N -0.2595122 -0.4471254 0.84345686
C 0.86936605 0.7863842 -0.5790624
C -0.75428665 -0.78633446 -0.5154363
N 0.056596126 0.078729056 -1.3583276
H -1.3942019 0.24536103 -0.7296343
H 1.1738755 0.88996416 1.6465712
H -0.58893967 -0.94252723 1.657002
H 1.4776436 1.5917686 -0.96939415
