10

O -0.7920252 -1.734666 -0.74507535
C -0.2981468 -0.5885844 -0.23529673
C 0.863743 0.123516046 -0.42040226
C 0.7111603 1.2360171 0.44410282
N -0.43442398 1.2149028 1.1017089
N -1.0394462 0.08461256 0.6691774
H -0.15701924 -2.0996022 -1.3714157
H 1.6896805 -0.11829504 -1.0739175
H 1.4032606 2.0512922 0.6055376
H -1.9467831 -0.16919285 1.0255809
