10

O 2.2530093 -0.22141863 0.3496651
C 0.13580497 0.6570598 -0.35779893
C 0.34231642 -1.6047984 -0.16902857
C 0.9433007 -0.4164153 0.10049522
N -1.9778837 -0.044207636 0.045829225
N -1.1566179 0.9008202 -0.0020395133
H -2.8403215 0.34414795 0.45194572
H 2.4102042 0.7283121 0.40770447
H -0.67531455 -1.7585082 0.18692963
H 0.56550187 1.4150081 -1.0137024
