10

O -1.8489306 -0.22158247 0.9069917
C -0.65336317 0.3989869 0.83234376
C 1.3706518 0.14023483 -0.8595395
O 1.9424112 1.1561074 -0.5208442
C 0.057987005 -0.25057986 -0.3081576
O -0.57282877 -1.2536641 -0.77488875
H 1.7815237 -0.56950265 -1.6033745
H 0.027867628 0.22531505 1.7059253
H -1.4654465 -1.1213199 -0.05461901
H -0.63987225 1.4960048 0.6761626
