10

O -1.0333006 1.1182444 -0.6953253
C -0.29714355 0.4561003 0.005033731
C 0.3277057 -0.8237292 -0.49313492
O 0.7288622 0.30145627 2.156837
C 0.0032005538 0.9189396 1.4223795
O -0.042190503 -1.0935467 -1.8075001
H -0.6291322 -0.37483916 -2.0852954
H 0.023729296 -1.6353031 0.18576325
H 1.4207119 -0.7317154 -0.3938817
H -0.5024428 1.8643931 1.705124
