10

O -0.55476128 -1.87628087 -0.79780383
C 0.21187847 -0.99102378 -0.04563104
C -0.31612969 0.41893739 -0.14457043
O -1.29936222 0.68434271 -0.80311321
C 0.40340852 1.52887047 0.60616864
O 1.38445289 1.32029010 1.27050627
H -1.26052232 -1.35503728 -1.20819120
H 0.22557836 -1.27331999 1.01836038
H 1.26214482 -0.98677406 -0.37714699
H -0.05668755 2.52999570 0.48142150
