11

N -2.0468931 0.6899574 0.41887194
C 1.1235539 -1.0550385 0.06420283
C -1.2551664 -0.09142802 -0.4190724
C -0.10250949 -0.6321379 -0.11123872
N 2.117197 0.9546839 0.004930478
N 2.2704303 -0.25253808 -0.26210284
H -1.6309434 -0.19834594 -1.4372543
H -1.7773261 0.6582597 1.3906928
H -3.0393913 0.5678926 0.28738868
H 2.9732099 1.4261836 -0.3120141
H 1.3678385 -2.0674887 0.37559563
