11

N 1.5286587 -0.2667088 -1.0152893
C 0.35540918 1.1534114 0.46284005
C -0.39593968 -0.03760634 0.59441304
C 1.3875461 1.0022211 -0.3833634
N -1.7540455 -0.123393156 0.34643078
N 0.5722398 -0.9942518 -0.72365505
H -2.1472847 0.7211805 -0.033999465
H -2.3078976 -0.530627 1.0815018
H -0.06136159 -0.6939654 1.4046239
H 0.6601379 -1.944758 -1.0878205
H 2.1625373 1.7144974 -0.64568174
