12

N -0.28209988 0.69398189 -1.10029785
C -0.93223772 -0.38708242 -1.01657346
N -1.65270163 -0.47319095 1.43930079
C -0.41834371 -0.67396534 1.46180614
C -1.01402644 -1.17836083 0.24549359
C 0.39706259 1.50156175 -0.32902228
N 1.72240073 1.33040777 -0.33359642
H -1.49968200 -0.73002639 -1.88035270
H -1.25415655 -2.23524531 0.14047274
H 0.43173685 -0.46173002 2.08991310
H 2.29437614 1.97548992 0.18113134
H 2.20767150 0.63815997 -0.89827503
