11

N 0.68789583 0.011319954 -1.2089338
C 1.8560482 -0.49203336 -0.77184784
C -0.44887567 0.29950523 -0.6571622
N 2.4844208 -1.176039 1.4795346
C -0.8617321 0.15529333 0.75472504
N 2.1751919 -0.8576772 0.44047308
N -2.1185434 0.55303395 0.88629425
H -1.1913652 0.70692223 -1.3612008
H -2.5500405 0.5229275 1.7959821
H -2.699157 0.9070981 0.12652884
H 2.6661575 -0.6303509 -1.484393
