11

N 1.18107051 -1.24751105 -1.71045082
C 1.59779485 -1.23867162 -0.47531220
C 0.77024403 -0.46549037 0.41971342
N -2.85910296 2.27797523 0.54763629
C -0.91971966 0.91121614 1.11163800
N -1.96173393 1.64216392 0.79444671
N -0.26724137 0.27864459 0.10892525
H 1.70736170 -1.75178816 -2.41075887
H 0.34347633 -0.76658813 -2.02394394
H 1.08489528 -0.52672101 1.46278351
H -0.67704485 0.88677051 2.17532249
