11

N -2.1107817 1.2156887 1.1148764
C -0.87840134 1.2988634 0.6732778
C 0.9078412 0.2602888 -0.30690488
N -3.1691427 1.1705728 1.4999467
C 1.6931189 -0.7937694 -0.9035796
N -0.3305413 0.18873647 0.12667455
N 1.10375 -1.956476 -0.91147745
H 1.439482 1.2106878 -0.23726565
H 1.5736017 -2.7509835 -1.3234318
H -0.40831715 2.2765117 0.7921812
H 0.17939042 -2.1201212 -0.52429736
