11

C 0.413777 0.78245795 -1.0404601
N 0.0048653604 0.02068636 0.010986928
C -1.3473692 -0.3903111 0.3434871
N 2.1919625 0.19345742 0.025737882
C 1.1634468 -0.32549015 0.63968134
N 1.7145916 0.9005928 -1.045552
H 1.2000896 -0.94150674 1.5270369
H -1.5844569 -1.3510599 -0.119729586
H -0.26591626 1.2215805 -1.7565131
H -1.4421115 -0.47645524 1.4278896
H -2.0488796 0.36604792 -0.012564792
