11

C 0.06340351 0.93780034 -0.99122130
N 0.01478077 0.01624369 0.00948581
C -1.07310967 -0.23876437 0.93656663
N 1.90493131 -0.17807579 -1.08734244
C 1.19340993 -0.65855905 -0.10400585
N 1.18513190 0.84034610 -1.65328511
H -0.66269101 -0.57430248 1.89118509
H -0.72955718 1.64513885 -1.18725449
H -1.62982468 0.68591300 1.09783941
H -1.74666938 -1.00302911 0.54155364
H 1.48019401 -1.47271122 0.54647871
