11

N 0.5740053 -1.3318584 -0.8212564
C -0.49791992 0.67246413 1.0959088
O 0.8647768 0.4007762 0.8515581
C -0.43043223 -0.2924716 -0.92893356
C 0.93603265 0.03676362 -0.50641656
O -1.2561764 -0.11053426 0.19749829
H 0.43852323 -1.8941746 0.01900711
H -0.7429456 0.3867167 2.120836
H -0.702335 1.7411222 0.929702
H 1.7290906 0.5114651 -1.072887
H -0.91261965 -0.12026912 -1.8850167
