11

N -0.9601996 -0.34817803 -0.67929846
C -1.1075455 0.4903967 0.3475102
O 0.16497718 -1.2955564 1.0219558
C 1.037235 0.6477798 -0.06757864
C 0.49240535 -0.8044829 -0.13261302
O -0.10751495 1.2941296 0.56563234
H 1.0164852 -1.4249878 -0.8811271
H -1.6240865 -1.1134348 -0.68232787
H 1.2190381 1.1078279 -1.0402925
H -2.0082011 0.6790462 0.93262887
H 1.8774068 0.7674593 0.6155106
