11

N 0.21340000 -1.32208916 -0.99213494
C -0.30032227 0.03292743 -1.02100514
O 0.75026115 -0.09488634 1.03039624
C 0.97033526 -0.26498170 -0.34957212
C -0.44067731 0.65484708 1.13054281
O -1.22245902 0.36700640 -0.01013502
H -0.47395106 0.51220301 -1.97829367
H -0.29043220 -1.89637899 -0.31616011
H 1.98181331 -0.06739794 -0.68579226
H -0.20492546 1.72941810 1.16457943
H -0.98304238 0.34933207 2.02757438
