10

O 0.9322884 0.010215693 1.1907609
C 0.6114247 1.2061571 -0.15296233
C 0.75247616 -0.2982297 -0.22844349
C -0.7235654 -0.63877314 -0.32846263
O -1.886367 1.5858915 -0.07974994
C -0.92119193 0.87900215 -0.10978341
H 1.8222442 0.37481195 1.32641
H -1.1365585 -1.3471419 0.39424688
H -1.0210302 -0.9067248 -1.3466773
H 1.5702795 -0.8652091 -0.6653386
