10

O 0.59933278 -0.37580196 1.33669383
C 0.83896961 0.03537315 -0.04718525
C 0.14230604 1.22312004 0.57946436
C -1.13669184 0.58099437 -0.06057279
O -2.27849175 0.93824932 -0.08919730
C -0.35458051 -0.53352126 -0.79315416
H -0.31833136 -0.31566865 -1.86472812
H 1.87855074 -0.03485148 -0.35619151
H -0.61608981 -1.58054565 -0.61991605
H 1.24502582 0.06265222 1.91478628
