10

O 2.03821333 0.83059268 -0.82645881
C -0.44290210 0.84268820 -0.23316730
C 1.01619508 0.36739680 -0.39422522
C -0.70518970 -0.54802902 0.39362612
N 0.70733538 -0.84295835 0.16529774
H 1.27750571 -1.65586792 0.34993874
H -0.98916610 -0.53496888 1.45018216
H -0.95350206 1.03872895 -1.17831151
H -1.38850321 -1.19030660 -0.16839489
H -0.55998621 1.69272407 0.44151304
