10

O 2.1113663 -0.27835536 -0.99593306
C -0.16264755 0.7908184 -0.555702
C -0.80570865 -0.08880274 0.54361516
C 1.0390512 -0.1725041 -0.46223518
N 0.40490937 -0.90561837 0.5041123
H 0.6924574 -1.731756 1.0089105
H -1.7107216 -0.6229054 0.24196742
H -0.66678226 0.7800422 -1.5242958
H -0.9700331 0.41243196 1.5022001
H 0.068109065 1.8166493 -0.2626396
