12

N -0.27235383 -0.008855035 -2.050802
C -0.15867515 -0.038988955 -0.6540223
C -1.0318998 -0.31383044 0.3343134
N -0.35603914 -0.09985857 1.5480353
C 0.9335137 0.3347427 1.3318205
O 1.7732209 0.66241974 2.1483035
N 1.049949 0.31286526 -0.05530556
H 0.2918827 -0.72289675 -2.4990087
H -1.2344668 -0.12167209 -2.3389335
H -2.046062 -0.67796206 0.2953842
H -0.7636955 -0.09164433 2.4662113
H 1.8146255 0.7656805 -0.5259962
