9

N -0.83341988 -0.30888032 1.46922170
C 0.44344234 0.53558785 -1.76385827
C 0.39936123 -0.37788460 0.67495729
C 0.42944885 0.07768321 -0.54669833
N -1.90246622 0.16634471 1.14401154
H 0.20415158 -0.10935997 -2.60416808
H 0.69944162 1.57114969 -1.96797878
H 1.24642484 -0.82252115 1.18547726
H -0.68638411 -0.73211924 2.40903582
