11

O 1.46268562 -0.71932432 -1.20552837
C -1.51937748 0.69513387 -0.31521355
C 1.21656633 0.19657508 -0.13167802
C 0.54890557 -0.91467544 0.63169446
O 0.81891617 -1.79366963 -0.46741183
C -0.23576817 0.24752821 0.15328635
O -0.93109374 1.19530778 0.89891567
H -1.57361957 1.41892280 -1.12915549
H 0.62716421 -1.31181690 1.63628596
H 1.98075803 0.92644217 0.10274705
H -2.39513722 0.05957645 -0.17394224
