10

O 0.20010379 -1.3847961 0.30255717
C -1.2361382 -0.6468531 -0.23303224
N -0.9050738 0.4018493 0.83763087
C 0.3842382 0.70166487 -0.9724249
C 0.37941754 0.5533492 0.51040244
N -0.6047446 0.04654562 -1.4343057
H 1.1145067 1.2634536 -1.5484042
H 1.1753954 0.8429047 1.1951691
H -1.0998472 0.09742908 1.7829024
H 0.5921424 -1.8755472 -0.44049487
