12

N -1.24205787 -0.25366878 -0.43220164
C -0.43149681 0.07810926 -1.35160452
N -0.97989616 -1.26317411 1.54909679
C -1.29989323 -0.15304953 0.87828260
C 1.34079391 1.00330173 0.24324850
C 0.88943603 0.70642351 -1.10499991
N 0.90506775 2.02346401 -0.33437477
H -0.73592154 -0.07468820 -2.38550330
H -0.71358513 -2.13574093 1.10307103
H -1.06702726 -1.27608374 2.54768250
H 1.72953685 0.70822720 1.20952908
H 1.60504352 0.63687966 -1.92222614
