12

N -1.7521503 -1.2646401 0.5349401
C 1.3606063 0.66718125 -0.46343836
N -1.0614762 0.5167561 -0.632523
C -1.4875984 0.04476094 0.5192055
C 0.054502368 0.8393341 -1.145283
C 1.4414204 0.11765649 0.878622
N 1.5451916 1.3640352 0.881562
H 0.053252883 1.3022735 -2.1305006
H 1.4003195 -0.7058114 1.5801201
H -1.6457233 -1.8721889 -0.27177617
H 2.2350273 0.6675503 -1.1116489
H -2.1433723 -1.6769074 1.3607203
