10

O 1.2731116 0.51986873 -1.866709
C -0.017256176 -0.5524042 1.0793046
N 0.88925266 -0.32324713 0.22183613
C 0.3510582 0.33937427 -0.9037993
C -1.2481575 -0.7356966 1.5264248
N -0.85503966 0.71951216 -0.98998857
H -1.6427995 -0.08502328 2.309009
H -1.0282329 1.1507156 -1.8924559
H 0.1795219 -1.1515032 2.074102
H 2.0985417 0.1184035 -1.5577234
