10

O 1.48853982 -1.24663937 1.48862566
C -0.86819130 0.69467259 -0.07556991
N -0.22202479 0.06427915 0.76183106
C 0.87133000 -0.76890627 0.39045533
C -1.62668645 1.41449022 -0.85666809
N 1.20566783 -1.02889445 -0.79774364
H -2.51362614 0.98102055 -1.30437950
H 1.02145672 -0.89882725 2.26645551
H 2.00741138 -1.65477652 -0.80225312
H -1.36387708 2.44358129 -1.07075342
