10

O -1.9633027 0.99099505 -0.1897091
C -0.80509526 0.3508838 0.040376566
N -0.47733557 -0.29956603 1.118584
C 0.7997818 -0.76587766 0.8563966
C 1.2164001 -0.38423058 -0.3797833
N 0.15708879 0.3481794 -0.90810347
H -2.4916775 0.8661712 0.61093223
H 1.3377795 -1.3524392 1.5907989
H 2.1284182 -0.5482834 -0.93131846
H 0.097942635 0.79416734 -1.8081741
