11

N -1.2590095 -0.038909543 -0.14569066
C -0.35980108 0.56509197 -0.9991736
C 0.7097106 -0.4567535 0.87502664
C 1.0176013 0.3253496 -0.3728847
C -0.6119555 -0.6314667 0.94827765
O -0.64097005 1.1498356 -2.019351
H 1.4399657 -0.81086737 1.5879508
H -2.2517881 -0.037843723 -0.3101507
H 1.5034673 1.2876413 -0.17874697
H 1.6518878 -0.21143071 -1.086451
H -1.199108 -1.1406469 1.7011939
