11

N -0.85927325 0.60969126 -1.3946445
C 0.27864888 -1.0930486 0.6955067
C 1.1286459 -0.2541176 -0.2232255
C -0.030819632 0.8119745 -0.37206838
C -0.80174077 -0.34340718 0.70153266
O -0.16664258 1.6823971 0.5546896
H 1.358466 -0.73413295 -1.174942
H -1.5966953 1.3150839 -1.3215328
H 0.4787176 -2.0185614 1.2203405
H 2.0092354 0.18456852 0.24885198
H -1.7985421 -0.16044752 1.065492
