11

N 1.3446492 0.5690662 1.8359988
C 0.64036006 0.2667757 0.8333806
C -0.76860356 -0.17646597 0.855834
C -1.1584841 -0.39585477 -0.39484707
C -0.012121434 -0.10763049 -1.32411
O 1.0577899 0.2964181 -0.47000155
H 2.2835956 0.8477439 1.5511038
H -1.3274698 -0.28358817 1.7755212
H -2.1287148 -0.7312034 -0.73975015
H -0.23162046 0.7031438 -2.028503
H 0.30061948 -0.98840505 -1.8946266
