10

N -0.81928086 0.56342643 -0.99751747
C -0.6176088 0.8747238 0.41173923
C 0.3993528 -0.10335164 0.9225531
C 0.74043906 -0.8940888 -0.10447858
C -0.04801929 -0.4301848 -1.2575794
H -0.2880614 1.9172748 0.5105191
H -1.5750813 0.80065256 0.941624
H 1.4449168 -1.7171658 -0.11540962
H -0.004582311 -0.86892396 -2.2520952
H 0.7679253 -0.1423624 1.940645
