11

N 0.0083558215 -0.050020684 -0.69234383
C 1.1319888 -0.46292254 -0.14481445
C -0.78422 0.18053539 -1.7333376
N -2.1664467 0.8830519 0.34198463
C 1.2304604 -0.39892298 1.2923722
C -1.3456607 0.49477646 -0.49991712
O 0.34528497 0.009514433 2.0305562
H -0.7530726 0.122045845 -2.8050094
H 2.1943963 -0.753733 1.7079787
H -1.7898268 0.7967368 1.2902569
H 1.9287407 -0.8210617 -0.7877264
