11

N 1.6145023 -1.6023684 0.6414543
C 0.75941 -0.735405 0.30563974
C 0.85687685 0.67048424 0.73761564
N 0.02096767 1.588315 0.4273797
C -1.053102 1.2055832 -0.3756765
C -1.2035185 -0.049484182 -0.80241126
O -0.3262286 -1.0387233 -0.4883512
H 1.3934393 -2.518001 0.2532333
H 1.7124585 0.912614 1.3652604
H -1.7631094 1.9783847 -0.63769555
H -2.011696 -0.41139895 -1.4264486
