11

N 0.5226287 -0.46413097 0.42906752
C 0.24523455 0.08273704 -1.8063624
C 0.2680787 -0.4840462 1.7147269
N -1.7103343 1.1178491 1.3073572
C 0.972842 -0.6340216 -0.75865155
C -0.80763155 0.37177876 1.5601543
O -0.7194557 0.79783845 -1.5844702
H 1.8302834 -1.2627665 -0.99261504
H -1.9529246 1.4914671 0.3983659
H 0.6171265 -0.057994533 -2.8380618
H 0.73415244 -0.9587106 2.5704894
