10

O -0.67006886 1.3302681 0.9313591
C 0.18983017 0.6289535 0.0905351
C 0.66883534 -0.6503598 0.64882
O -1.6887703 0.5001734 -1.3655263
C -0.51181394 0.2847701 -1.2218261
C 1.0358555 -1.7171793 1.058826
H -1.5602317 1.215502 0.558974
H 0.10820236 -0.18932381 -2.003815
H 1.0634321 1.2566708 -0.13978706
H 1.3647292 -2.6594748 1.4424404
