10

O 0.33415508 -0.7871718 -2.1772761
C 0.09360259 -0.37878114 0.05594518
C -0.6864376 0.93391484 2.1965547
O 0.64020616 -1.5494282 0.1151713
C -0.3057724 0.32674348 1.2295016
C -0.005803833 0.095534176 -1.3216662
H 0.6949879 -1.7453791 -0.89918375
H 0.93176633 0.6920341 -0.72575253
H -0.6784769 0.9402851 -1.5310936
H -1.0182275 1.4722486 3.0577993
