11

C -1.1349142 1.14466 0.602474
C -0.22098544 0.028824221 0.20864561
C 0.7640671 -0.013054123 -0.74501204
N 1.2488543 -1.275158 -0.65476316
N 0.6145027 -1.9763329 0.28749815
N -0.27245867 -1.1958219 0.81204736
H -2.1817043 0.857159 0.46064848
H -0.93995756 2.0394917 0.004850284
H -1.0038552 1.400054 1.6583961
H 1.1452687 0.7101887 -1.4483124
H 1.9811823 -1.7200105 -1.1864725
