11

C -0.34943363 1.3101579 -0.645002
C -0.21374297 -1.3110063 -0.44951642
C -0.027514279 -0.017130014 -0.036176316
N 0.2913514 -2.1584973 0.4934944
N 0.59457594 -0.17202882 1.1581532
N 0.77955484 -1.466791 1.4661468
H 0.9140271 0.5326448 1.8032947
H -0.891684 1.9553955 0.053488106
H -0.6744467 -1.6782408 -1.3545604
H -0.97962976 1.1686436 -1.5275359
H 0.5569417 1.8368528 -0.9617859
