13

C 0.20117411 -1.5208335 -0.59647876
C -0.20744677 -0.056042083 -0.5842426
O -1.5743148 0.13124427 -0.23688155
C 0.73566103 0.76933074 0.30367085
O 1.9414496 0.61546886 0.26695845
N 0.09832481 1.6589148 1.1072837
H 1.2503102 -1.6154201 -0.8818408
H -0.42328483 -2.077527 -1.3019212
H 0.08245384 -1.9654905 0.4006844
H -0.11211574 0.3597348 -1.5922488
H -1.7602835 -0.4362843 0.52114725
H -0.8877767 1.8144021 0.970399
H 0.6558488 2.3225024 1.6234703
