13

C 0.93900645 0.41978544 1.6768172
C 0.033919595 -0.016448231 -0.4556683
O -2.1847787 -0.72714865 -0.8226148
C -1.178895 -0.33581108 0.004020151
O 1.1154207 0.37701124 0.27466822
N 0.2646955 -0.082520545 -1.8571049
H -1.4635334 -0.3152605 1.0492017
H 0.5517149 0.82477516 -2.2128015
H 0.15251666 1.1314092 1.9613652
H 1.8923591 0.7483882 2.094761
H -1.8173065 -0.71124566 -1.7205217
H 1.0079098 -0.74193233 -2.0701222
H 0.686971 -0.57100195 2.0779998
