12

O 0.8047147 0.41606343 -1.5877292
C 1.0051844 0.74290055 -0.23202135
C -1.5055093 -1.5884813 -0.10817007
C -0.23036903 0.46088645 0.6189347
N -0.5705994 -0.9653518 0.5723301
H 1.8667513 0.20050219 0.19126654
H 1.2372708 1.8128488 -0.19734918
H 0.55922395 -0.5153121 -1.6329842
H 0.07089298 -1.5473137 1.1011565
H -0.058159433 0.76134056 1.6590692
H -2.0865319 -0.7864777 -0.61265343
H -1.0928693 1.0083944 0.22815023
