12

O 0.07878056 0.11988999 -1.82235521
C 0.95731150 0.37067010 -0.74985948
C 0.22016331 0.51450979 0.57911499
C -1.77840935 -1.00725678 0.79007958
N -0.50121522 -0.72141903 0.90187993
H -0.41866760 -0.67964590 -1.61484186
H -0.52521912 1.31241293 0.51477391
H 1.47883929 1.30544357 -0.98237365
H 0.92411394 0.74782196 1.38647336
H -2.26434647 -0.06194503 0.46519295
H 0.11052014 -1.47856900 1.18885249
H 1.71812918 -0.42191301 -0.65693691
