10

O -2.386349 0.95405173 0.40230972
C -1.7688617 -0.058669362 0.6283338
C -0.35599673 -0.2250301 0.21411645
N 0.27788898 -1.341867 0.46471712
O 1.5383601 -1.1735626 -0.03487469
C 1.6389844 0.05071327 -0.57852846
C 0.4691313 0.71687204 -0.46121156
H -2.2134655 -0.9231157 1.1558263
H 2.6036077 0.29087856 -1.004679
H 0.19669992 1.7097293 -0.7860097
