11

C -0.84128007 -0.10976041 -0.77033958
C 0.07105685 -0.16965582 0.26404987
C 1.55632110 -0.19346459 0.05024416
O -0.55586034 -0.85479504 1.35171282
C -0.58062884 0.55819894 1.46632955
N -1.62853996 -0.18166055 -1.68507932
H -1.63123281 0.88752706 1.28574080
H -2.15598133 0.63459355 -1.98758142
H 2.03375901 -0.11195082 1.02783829
H 1.86282276 0.65948079 -0.56151439
H 1.86956387 -1.11851318 -0.44140087
