10

O -0.37500134 -0.88372934 -1.9412248
C -0.06213708 -0.47584847 1.3839716
C 0.3080797 1.1618273 -0.68941206
N 0.49703202 1.5713389 0.5365744
N 0.3161273 0.76203775 1.6013147
C -0.106158115 -0.18235531 -0.9170497
N -0.2828605 -0.96797734 0.15736598
H 0.4717566 1.8620561 -1.5004622
H -0.20594303 -1.1259357 2.2413344
H -0.56089556 -1.7214141 -0.8724124
