10

O -0.5682618 -1.3742857 1.7592007
C 0.33511788 -0.0014589098 -1.3535552
C -0.2776097 -0.5700346 0.9018894
N 0.009640542 -0.9301216 -0.4100139
N 0.13734394 1.7179763 0.12763883
C -0.17553738 0.88514334 1.0623862
N 0.4070723 1.2655809 -1.140882
H -0.035893474 -1.913433 -0.6416314
H 0.5479272 -0.3741279 -2.350438
H -0.37979957 1.2947611 2.045406
