10

O 1.4467756 -1.2689363 0.8714893
C 0.54613954 -0.45547953 0.32246426
C 0.88256276 0.89680076 0.08356431
N 0.007590594 1.7123308 -0.45702994
N -1.2050982 1.2555331 -0.7786676
C -1.4661375 -0.014352591 -0.53482276
N -0.6383196 -0.92048764 0.010897671
H 1.0279933 -2.1418953 0.9546472
H 1.859393 1.2970625 0.3336031
H -2.4608989 -0.36057577 -0.80614567
