10

N -0.5620062 0.44537777 -1.3946402
C -0.9641991 -1.0711837 0.5249284
C -0.18324639 -0.0047073984 -0.1209257
O -0.69885176 -1.560568 1.5978224
C 1.4864316 1.1656133 1.3129643
N 0.775858 0.53055996 0.54679364
H -0.06774107 1.2829018 -1.6752053
H -1.8417131 -1.3848093 -0.07842887
H 2.532765 0.8574896 1.4021122
H -0.47729695 -0.26067427 -2.1154208
