10

N 1.352271 0.9827113 0.4946855
C -1.8789737 -0.6330445 0.7027275
C 0.010758433 -0.12174682 -1.3178277
O -0.9595563 -0.7864 -1.6512923
C 0.25232154 0.21355316 0.07571436
N -0.727022 -0.20669903 0.82864124
H 2.182434 0.42782196 0.66801596
H -2.104321 -1.6790811 0.9280684
H 0.7325917 0.2751395 -2.0492134
H 1.1394964 1.5277455 1.3204806
