11

O 0.18632527 -1.9094737 1.1301686
C 0.028768849 -0.7654895 0.41568202
C -0.8750203 -0.36856043 -0.5364184
C -0.5014539 0.96510696 -0.908567
C 0.5974869 1.3151827 -0.17682116
N 0.91655695 0.24220388 0.63636446
H -0.51134425 -2.518924 0.8624572
H -1.6992009 -0.95140386 -0.92307943
H -1.0044341 1.5809329 -1.638857
H 1.1826475 2.2204444 -0.15343487
H 1.679668 0.1899807 1.2925056
