11

O 0.95624185 -1.1866527 -1.8678814
C -0.46234304 0.20073205 1.105517
C 0.47672364 -0.5567628 -0.95398945
C -0.33735716 1.2220219 0.2558108
C 0.037400264 -1.0471323 0.42982188
N 0.21102245 0.7982702 -0.96505266
H 0.4086806 1.3862145 -1.7583364
H -0.8583801 0.25237113 2.108489
H -0.727828 -1.8216134 0.31529963
H 0.8884702 -1.5120213 0.939959
H -0.5926307 2.2645729 0.39036238
