10

N -1.84951918 0.55595585 0.55227026
C 1.33091211 -0.68117253 0.34523410
C -0.59326419 0.25012493 0.04444835
O 0.16340175 -0.56191295 0.91392328
C 0.10478163 0.65663244 -1.05801819
N 1.33351180 0.01453365 -0.77833500
H -2.45374771 -0.25357609 0.64372447
H 2.10639199 -1.28972442 0.78543949
H -2.27976444 1.23200961 -0.06382059
H 2.13729631 0.07712932 -1.38486619
