10

N 0.95324284 -1.2266876 1.1572224
C -0.12075686 1.5009149 -0.64016473
C -0.6461556 -0.69262236 -0.73053855
O 0.6232864 0.89988655 0.27998978
C 0.24902685 -0.43023634 0.26538533
N -0.8113131 0.63622326 -1.3278188
H -1.7109251 -0.064381465 -1.3629861
H -0.04492123 2.57343 -0.75471306
H 0.77882177 -0.9973798 2.128355
H 0.729694 -2.1991475 0.9852689
