11

C -0.50116819 0.78464007 -0.97212138
C 0.58986444 0.02412828 -0.38475427
C 0.66989911 0.04841097 1.03272143
C 1.35471033 -0.97102557 1.58630854
O -0.27950873 1.98821783 -0.96153995
N -1.58177661 0.19473422 -1.56165748
H 1.93572205 -1.63096416 0.94587222
H -2.10915863 0.77903193 -2.19458207
H -1.51412059 -0.78509527 -1.79172154
H 1.32519842 -1.18564016 2.65041375
H 0.11033831 0.75356185 1.65105991
