11

O 2.2299383 -0.5791729 -0.7369576
C 1.1527716 -0.06852732 -0.7484368
O -0.44797915 -1.6693878 0.46317413
C -0.13600175 -0.44374302 -0.053913303
C -0.6222127 1.2097453 -1.3556367
C -0.36277044 -0.5762265 1.3817977
O 0.77497804 1.0421194 -1.4238248
H 0.4974129 -0.60439116 2.050202
H -1.3090738 -0.2450185 1.8026321
H -0.99224985 0.0061869756 -0.85029596
H -0.7848128 1.9284154 -0.52874064
