10

N 1.894048 -0.3060293 -0.0028385473
C 0.6617343 -0.50161546 -0.59614
O 0.49256933 -1.1135285 -1.6177846
N -0.37752655 0.06696833 0.17516305
C -1.6575457 0.11915617 -0.26031882
O -2.3353653 0.68082947 0.7514449
H -3.2549276 0.7286467 0.4686539
H 2.0512493 0.5166214 0.5580129
H -0.14329538 0.39413258 1.1113766
H 2.66906 -0.58518136 -0.58756924
