10

N -0.5664428 1.1657408 -1.2859724
C -0.15589091 0.24971227 -0.3237267
C 0.6845682 -0.8150793 -0.3947275
O 0.6900805 -1.4130692 0.8442803
C -0.14649408 -0.6742526 1.5737243
N -0.6815347 0.32522875 0.95264506
H 0.14502607 1.4197934 -1.9553823
H -0.9759969 1.9860117 -0.86102533
H 1.3037119 -1.269021 -1.1513481
H -0.29702738 -0.9750645 2.6015327
