9

O 0.33639921 -1.84214972 -0.53804915
C -0.29763012 -0.22737164 1.03021394
N -0.55884239 0.07453908 2.17892612
N 0.07067331 1.59782641 -0.88517847
N 0.41025403 0.42487589 -1.16347925
C 0.14646344 -0.53856158 -0.18319863
H 1.08110456 -1.85294980 -1.15370587
H -1.54777258 0.19789346 2.40116015
H 0.35935057 2.16589819 -1.68668879
