9

O -0.29793045 -0.8342428 -1.735354
C -0.45993912 -0.79581606 0.5972898
N 0.72846633 1.5951717 0.5160899
N -0.70725876 -1.3674047 1.6418189
N 0.648718 0.9777642 -0.570661
C -0.039902817 -0.24012299 -0.5346126
H 1.2801296 2.4343917 0.3164995
H 0.44996062 -0.62584454 -2.3106496
H -1.6022434 -1.1438966 2.0795789
