9

O -1.3030607 1.431223 -0.55489963
C -0.4243523 0.4797413 -0.1957279
N 1.7644839 -0.5403534 -0.76460457
N 0.2770247 -1.2217079 1.1194091
N -0.6083888 -0.36619806 0.85464036
C 0.7762994 0.18884626 -0.7954644
H 1.6253259 0.407052 -1.6541334
H -0.059266504 -1.739036 1.9360614
H -2.0480657 1.3604327 0.05471911
