9

O 0.49808952 1.7633057 -0.8328775
C 0.15836607 0.5911016 -0.2776827
N 0.27044225 -1.4681371 0.5106578
N -0.9244806 -0.9310046 0.61507237
N -1.0595635 0.31025413 0.15813184
C 0.9986561 -0.51494616 -0.061919507
H -1.699778 -1.4293852 1.0216945
H 2.0453322 -0.64852357 -0.2862738
H -0.2870641 2.3273354 -0.8468031
