9

N -0.8868653 -0.5774094 -1.2231145
C 0.23391984 -0.1471892 -0.5535565
C -0.05403312 0.36848775 0.7858019
N 0.96103257 0.80378914 1.4831198
N 1.837187 1.1762589 2.0832732
O 1.3498708 -0.15571846 -1.0393065
H -0.704961 -1.0937537 -2.0718024
H -1.707395 -0.8427764 -0.7032068
H -1.0287558 0.46831134 1.2387923
