9

O -1.9673573 0.42442223 0.07696845
C -0.6568408 0.13365686 0.030632451
N -0.1116137 -0.89728796 0.6548736
N 1.173204 -0.7827013 0.32863972
N 1.499606 0.22740974 -0.44809777
C 0.33982843 0.8442192 -0.66221863
H -2.3984208 -0.23862532 0.6324935
H 1.8598977 -1.441369 0.6596839
H 0.2616965 1.7302755 -1.2729751
