9

O 0.742342 0.18294954 1.6034999
C 0.36392146 -0.013423031 0.3394576
N -0.82964545 1.0620242 -1.234209
N 0.18755968 1.0047857 -0.49412242
N -1.1532729 -1.4104596 -0.39050293
C 0.020130495 -1.4352663 -0.005233559
H 0.7081117 -2.2439988 0.26865447
H 0.5529068 1.0925229 1.8704363
H -0.5920539 1.7608658 -1.9579804
