9

O -0.39424008 1.69687026 -0.43699893
C -1.36015515 -0.50964826 -0.12587865
N 1.08680353 0.08178980 0.30903497
N 1.20771886 -1.06363372 0.77570185
N -0.75340804 -0.60173786 -1.23405400
C -0.22468469 0.35315788 -0.22897259
H -2.23569386 -0.91471974 0.36124227
H 2.18628423 -1.13044514 1.09864570
H 0.48737523 2.08836671 -0.51872049
