11

N 1.4026364 1.3152444 0.48535055
C -0.6891852 0.068319365 1.0326267
C -0.21954617 -0.28724894 -0.19896786
N -0.7135801 -1.1941792 -1.1596683
N -0.56070876 0.74216443 2.065607
C 0.99084735 0.49365184 -0.40366977
H -1.6002718 -0.16251604 1.7583679
H 2.2567892 1.7918855 0.21131767
H -1.5881141 -0.91612303 -1.583949
H -0.76147354 -2.153073 -0.8430177
H 1.4826066 0.30187494 -1.3639977
