12

C 0.53950083 1.27765740 0.27797031
C -0.09716026 -1.46193197 -0.95561975
C -0.97136527 -0.32256114 -0.46601280
O -0.36084881 0.34831185 0.63676406
N 1.05826704 1.76037291 1.41236789
H 0.09896641 -2.17341475 -0.14636843
H 1.75815212 2.48325768 1.35377731
H 0.78988866 1.43187040 2.33722404
H -0.59467050 -1.99365051 -1.77407390
H 0.85792470 -1.07071938 -1.32063267
H -1.93354038 -0.68787028 -0.09151795
H -1.14511546 0.40867777 -1.26387774
