10

O 2.0871727 0.48524958 -0.9122508
C 1.0347745 0.25972784 -0.35463953
C 0.38625264 0.6892327 0.8555508
N -0.8970418 -0.24275774 0.47682437
C -0.15366846 -0.6578051 -0.7360788
H 0.01008406 -1.7360923 -0.8089078
H -0.24822414 -0.39120898 1.410727
H -0.6621494 -0.28787166 -1.630664
H 0.24130043 1.6686782 1.294076
H -1.7985003 0.21284747 0.4053626
