10

O 0.7906535 1.9332168 -0.7626222
C 0.35347885 0.8895969 -0.37800202
C -0.92839384 0.4424743 0.32836974
N -0.5068539 -0.95609224 0.09397008
C 0.834656 -0.5651133 -0.38946736
H -0.9534687 0.76356214 1.3784173
H -1.8719107 0.72811 -0.14952414
H -0.4929198 -1.5268897 0.9309671
H 1.6632559 -0.7292754 0.31282237
H 1.1115024 -0.97958916 -1.364931
