9

O 1.87103402 -0.58319132 1.11202214
C 0.47241797 0.07780934 -0.80496225
N -0.95581139 0.33966062 -0.79508433
N -0.41018696 -0.19870075 1.35412805
N -1.26452575 0.15028956 0.42170539
C 0.80264709 -0.28269545 0.64690922
H 1.01357518 0.96601991 -1.14650287
H 0.70432460 -0.74076894 -1.49124572
H -2.23347473 0.27157718 0.70303016
