11

N 0.7998401 -0.049638886 0.7874727
C -0.81233263 0.1042153 -0.72166604
C -0.06364641 -0.87353283 0.018951572
N -0.42928663 1.4508398 -0.2729736
C 0.5634948 1.2628707 0.57841736
N -0.0006641228 -2.1509671 0.13874063
H 1.4254858 -0.44512683 1.4707277
H -1.7646017 -0.010568189 -1.2140186
H -0.6950583 -2.5831878 -0.46613115
H 1.1353484 2.057716 1.034285
H -0.15857936 1.2373801 -1.3538057
