11

N 0.16987834 0.80481080 0.85815086
C 0.28724647 -0.53302968 0.48798808
C -0.37246818 1.51898661 -0.19761115
N -0.64477428 0.84197707 -1.24340019
C -0.25577103 -0.53881476 -0.93788126
N 0.75569874 -1.42129687 1.25858279
H 0.45333635 1.15939645 1.75684617
H -1.12005576 -1.20585163 -1.03606574
H -0.53855273 2.58833003 -0.09882010
H 0.50285485 -0.88156954 -1.65187117
H 0.76260715 -2.33293856 0.80408165
