9

O 1.90641098 -1.39036307 1.61380052
C -0.45597462 0.50648922 -0.19795621
C 0.35807307 0.20054649 0.78426902
C 1.14772199 -1.05206476 0.73846595
C -1.25126081 0.77602207 -1.19215451
H -0.89637229 1.34539182 -2.04718856
H 0.48525739 0.83923386 1.65537174
H 0.99187246 -1.66914673 -0.17006061
H -2.28572844 0.44389112 -1.18454732
