9

O 2.5051565 -0.30082777 -0.049916334
C 1.4272034 0.22166842 -0.13369669
C 0.21093719 -0.2346781 0.6655843
C -1.0249021 -0.09524188 -0.10556342
C -2.011497 0.03711257 -0.77687335
H 1.248961 1.0957726 -0.792481
H 0.16083415 0.39299947 1.5642034
H 0.3768165 -1.2647977 0.99666053
H -2.8935099 0.1479924 -1.3679174
