9

N -0.7723467 0.24633232 -0.87736946
C 0.57408005 0.31113788 -0.76038
C 0.86905515 -0.112474576 0.5172505
C -0.38761154 -0.41000354 1.0863583
N -1.3788135 -0.19013616 0.23485969
H -1.3387941 0.4807209 -1.6766074
H 1.1989752 0.64466566 -1.5756259
H 1.8449724 -0.19547352 0.9710752
H -0.6095172 -0.774769 2.080439
