9

N -0.033674337 0.70781183 0.82267755
C 0.56592995 -0.9779445 -0.25221625
C -0.10696934 -0.15439515 -1.2816128
C -0.5284317 0.8926924 -0.43467906
N 0.6395082 -0.38096827 1.0160378
H -0.1795174 1.3151772 1.622909
H -1.097724 1.7892617 -0.64871114
H 1.2495539 -1.8021159 -0.44141957
H -0.5086753 -1.3895193 -0.40298542
