11

N 1.14893507 0.26289803 -1.65869689
C 0.41985909 0.23167572 -0.61401611
C -0.27305633 1.04846102 0.30512271
C -0.88013286 0.19507924 1.23753466
N -0.70998704 -1.09830135 1.09714951
N 0.13032255 -1.16182310 -0.09098154
H 1.30736264 1.22234717 -1.95619165
H -0.33777248 -1.71159541 -0.81377427
H -0.32224196 2.12678957 0.28441887
H -1.48916875 0.52177238 2.07473453
H 1.00588002 -1.63730352 0.13470057
