10

C 2.023854 -1.0161394 -1.1100699
C -0.5753012 -0.28648698 1.2185694
C 1.0544873 -0.49483126 -0.6320671
C -0.113195606 0.14774507 -0.07360527
N -2.2394617 1.2735733 0.9583376
N -0.778168 1.088398 -0.6479456
N -1.6514336 0.43488035 1.5096477
H -0.43511468 1.3734901 -1.5611501
H 2.8869014 -1.4796712 -1.5349836
H -0.17256773 -1.0409579 1.8732668
