9

O 0.3604444 -2.1690323 -0.3338169
C -0.8226188 -0.13862234 -1.0491556
N 0.62189335 -0.16783682 0.7963879
N 0.038026474 1.0567708 0.72190785
C 0.090217195 -0.8674898 -0.16670598
N -0.7158637 1.0344418 -0.4636857
H -1.2515055 1.8632292 -0.6761769
H 0.7001029 1.8216656 0.8062661
H 0.9793037 -2.4331262 0.36497906
