9

O 1.5827036 -0.2812571 -1.5374534
C 0.62034464 -0.14866318 -0.6128301
N 0.34664857 0.99397194 -0.017755551
N -0.66808444 0.6263364 0.802238
C -0.93489903 -0.679271 0.6542555
N -0.13084516 -1.2117317 -0.24327952
H 1.9937793 0.5855185 -1.6572361
H -1.1012205 1.3086084 1.4031017
H -1.7084272 -1.1935124 1.2089597
