9

O -0.55576834 -1.09762536 -1.63283143
C -0.11162416 -0.35071988 -0.63164248
N -0.98716869 0.43595970 0.25110534
O -0.64215277 -0.11440066 1.59772235
C 1.06028357 -0.00720122 -0.07655987
C 0.24213444 0.74444196 0.94335664
H -1.52318835 -1.06445802 -1.64408054
H 2.10084772 -0.26758858 -0.19156724
H 0.41663623 1.72159207 1.38449735
