11

C 1.2968959 0.63781023 0.5735706
C 0.10181036 -0.2929229 0.4132472
C -0.74856025 0.048849944 -0.783956
O -0.5395254 0.94758415 -1.5562149
C -1.9293729 -0.83019906 -0.975292
N -2.8467526 -1.517217 -1.1162126
H 1.9448724 0.60291916 -0.30677944
H 1.8834829 0.34318516 1.4482384
H 0.9742123 1.6742783 0.7054503
H -0.55145186 -0.27350357 1.2962165
H 0.41438913 -1.3407843 0.30173218
