9

N 0.67347580 -2.81674754 2.13286432
C 0.32996307 -2.04565785 1.34276620
O -0.30720077 0.62355438 -0.70570018
C -0.08966076 1.96002797 -0.98999613
O 0.58615126 2.70492223 -0.35983237
C 0.33435108 0.09837966 0.37921628
N -0.10144554 -1.18339174 0.39398256
H -0.76018999 -1.54157563 -0.29639880
H -0.66544394 2.20048862 -1.89690196
