9

N -0.6916759 -1.7289977 0.7241082
C -0.040092718 -0.7556325 0.2675421
O -0.45872888 -0.010368151 -0.81605697
C -0.3122313 1.3519835 -0.7863524
O 0.059092753 1.9798415 0.15598677
C 1.2852318 -0.4649642 0.7885941
N 2.3529932 -0.29204503 1.1954384
H -1.5830346 -1.8230262 0.23685001
H -0.61155415 1.7432089 -1.7661103
