9

N -1.5082474 -2.5500722 2.0393794
C 1.330604 1.4626851 -0.959107
O 0.21523032 0.69649696 -0.67065114
C 0.31746614 -0.20445274 0.35026926
O 2.3669055 1.4289427 -0.38149437
C -1.2133392 -1.7211471 1.2892143
N -0.9188093 -0.7550611 0.38936064
H 1.0724598 2.1101751 -1.8111305
H -1.6622696 -0.46756688 -0.2458403
