12

N -0.45493263 -0.45601127 1.913437
C -0.13939208 -0.13313875 0.5994233
C -0.92723453 0.7251861 -0.17524728
N -0.59642434 1.083866 -1.4120893
C 0.53933555 0.5799111 -1.8949761
N 1.3646137 -0.24650174 -1.2573595
C 1.0208539 -0.59719616 -0.020882009
H -1.4297246 -0.38388333 2.16128
H -0.03498193 -1.3048855 2.2634022
H -1.8540232 1.135039 0.22355308
H 0.8178855 0.8717567 -2.9030252
H 1.6940249 -1.2741421 0.5024842
