10

O -1.27989298 1.68316636 0.69005848
C -0.62417333 -0.59294972 1.25932858
C 0.22837963 -1.37208091 0.50718029
N 0.67969841 -0.80964335 -0.67853625
N 0.26999919 0.50978294 -0.60958491
C -0.58134869 0.56534053 0.47835339
H 0.02942435 0.93183035 -1.50031526
H 1.63313879 -0.94061744 -1.00065549
H 0.58307286 -2.37817478 0.71137748
H -0.93829831 2.40334590 0.14279393
