11

C -0.5215184 1.1359216 0.47842687
C -0.1267521 -0.2313044 -0.029990418
C 1.260554 -0.71150136 0.027639976
O 0.28351387 -1.1786401 0.94236153
C -0.98956704 -0.7764911 -1.0789988
N -1.6802483 -1.1727283 -1.9153467
H -1.5274434 1.1093732 0.90586543
H 0.18102749 1.4533942 1.2535162
H -0.5093835 1.8654726 -0.33606774
H 1.6128246 -1.4449607 -0.69403064
H 2.016993 -0.048535835 0.44662443
