11

C 0.639049 1.0997382 -0.75923437
C -0.32028952 -1.1935949 -0.56567466
C 0.28884658 0.5525511 1.212469
O -1.6438899 0.7132158 0.11981409
C -0.4606117 0.22397715 0.0007401854
N 1.4031279 1.7926269 -1.2876741
H 0.9327993 -0.13259839 1.7667795
H -0.9125565 -1.8652377 0.06005182
H 0.07589764 1.5369203 1.6196485
H 0.72346157 -1.5236708 -0.58661836
H -0.7258342 -1.2039275 -1.5803015
