11

C -0.94470656 -0.074134216 1.4638911
C 0.81112134 -0.90510213 -0.7348954
C -0.7399004 0.8687443 0.36250532
O 1.0703559 1.4557511 -1.0468019
C 0.47196588 0.5487594 -0.5264636
N -1.0820899 -0.83299774 2.3223984
H -1.6285108 0.8582081 -0.27818042
H -0.6270138 1.8852645 0.752375
H 1.5712285 -1.0011986 -1.5103073
H -0.08453231 -1.4734936 -1.0081812
H 1.1820823 -1.3298012 0.2036599
