11

C -1.02706257 0.32953897 0.51973638
C 0.43485247 -0.06621265 0.77946894
C 1.34922952 -0.15508663 -0.41560412
O 0.79805484 -0.24799337 1.91370715
C -1.56527807 -0.15504172 -0.75286793
N -1.96259310 -0.54946652 -1.76200254
H -1.07696109 1.42391681 0.52779600
H -1.63920903 -0.03418501 1.35102252
H 1.25044167 0.73773999 -1.04254195
H 2.38129039 -0.27277638 -0.08505833
H 1.05723518 -1.01043369 -1.03365598
