12

C 1.4020483 -0.293189 0.88006884
C 0.3355647 -0.50641894 -0.18676001
C -0.5895786 0.6951471 -0.31870422
O -0.2177948 1.8350694 -0.11440515
N -1.8679388 0.3986373 -0.6990661
H 2.1150396 -1.1220574 0.8893923
H 1.941448 0.63871914 0.6916718
H 0.9524394 -0.21996018 1.8757505
H -0.24776994 -1.4140203 0.014591349
H 0.8066765 -0.64735365 -1.1683985
H -2.1425042 -0.532343 -0.9602785
H -2.4876304 1.1677693 -0.9038623
