12

C 0.09568042 0.24052295 0.8646538
C -0.98668087 1.1546532 0.35138607
C 0.76816183 -0.7519373 0.01811225
O 1.4078254 0.45599794 0.35767895
N 0.39043045 -0.88238597 -1.3578223
H -0.36251596 -1.5592217 -1.4443119
H -0.8806098 2.1517215 0.7885683
H -1.9727153 0.7652659 0.6256591
H 0.07146924 0.037025046 1.9362658
H 1.2178695 -1.6264998 0.50324196
H 1.1732011 -1.2233065 -1.9088259
H -0.9221161 1.2381648 -0.7346064
