13

C 0.19103482 -0.98331124 1.4354248
C 0.62354976 0.08700983 0.43984526
N -0.31426352 0.3480815 -0.50705147
O -0.94130546 -1.7304991 1.0251282
C -0.14250499 1.3629824 -1.5249225
O 1.7073978 0.6346923 0.52159214
H -0.65341526 -2.3614476 0.35683477
H -0.20023245 0.9257572 -2.525427
H 1.0643513 -1.6136143 1.6445513
H -0.0842944 -0.47769594 2.3682873
H -1.1919477 -0.14629358 -0.417541
H -0.9023761 2.1449492 -1.4313333
H 0.84400606 1.8093891 -1.3853881
