9

N -1.01330101 -0.59484527 -0.34346635
C 0.78392081 0.09934852 0.84945678
C -0.24912755 0.43280166 -1.02331882
N 0.88129869 0.82488084 -0.20413832
C -0.39192949 -0.78185765 0.76269803
H -0.72047159 -1.50123394 1.50617321
H 1.49296064 0.15812869 1.66906444
H -0.88505346 1.30225290 -1.22383709
H 0.10170299 0.06052398 -1.99263199
