9

N -0.12006513 -0.8465781 0.4517431
C 0.35825393 0.37813243 0.85859215
C 0.27629885 1.1768161 -0.24736759
N -0.23555866 0.48029435 -1.3128303
C -0.4620725 -0.72775185 -0.85946995
H -0.20213905 -1.6756115 1.0156468
H 0.6995874 0.5507938 1.8680866
H 0.5558706 2.217163 -0.34634182
H -0.8701754 -1.5532585 -1.4280591
