9

N -1.2191418 -0.092596225 0.060893852
C -0.3800227 0.76992244 -0.74790734
C -0.3947309 -0.7914317 0.75129336
N 1.0162091 0.5027573 -0.46189016
C 0.99273396 -0.42194998 0.4271023
H -0.7166094 -1.5425544 1.4657207
H 1.8952639 -0.8464027 0.85515475
H -0.61019504 1.8205494 -0.53872204
H -0.5835068 0.6017061 -1.8116452
