10

O -1.2020797 1.6246539 1.1341974
C -0.60934556 0.6960932 0.69479525
C -0.4681038 -0.7317885 0.6177973
C 0.2058722 -0.57616997 -0.7462784
N 0.71216 0.7050158 -0.17545918
H -0.45802402 -0.38920844 -1.5972228
H -1.1626751 -1.490392 0.95919627
H 0.9983083 -1.2789096 -1.0122243
H 1.0799133 1.4911834 -0.7021653
H 0.9039746 -0.0504779 0.82736385
