10

O 2.28723519 1.58563362 0.27289685
C -0.46315896 -0.54555409 -0.31105501
C 1.33790628 1.14114976 -0.23114745
C 0.25452462 0.68191141 -0.82477980
N -0.30415761 -0.65413244 1.13489307
H -1.51417209 -0.48439342 -0.63627043
H -0.82084381 0.08066413 1.60145607
H -0.07134818 1.19792050 -1.72287394
H -0.65985322 -1.54402913 1.47121118
H -0.04613172 -1.45917049 -0.75433042
