11

C 0.7491845 -0.26346013 -0.40986627
C -0.45999056 -0.30142033 -1.3084477
C -0.6174946 0.895164 1.3618577
O 1.8718506 -0.4782445 -0.7914216
C 0.5126141 0.007032058 1.0839043
N -1.5134549 1.596413 1.5522022
H -0.17096862 -0.64950585 -2.3008196
H -1.2282703 -0.9592554 -0.88821447
H 0.32639346 -0.9601552 1.566695
H 1.431619 0.41585737 1.5140325
H -0.90148276 0.69757485 -1.3799214
