11

C -0.98979896 0.8936779 -0.11622393
C 0.05799165 -0.19389217 -0.17131399
C 0.6770562 -0.7399955 1.0457515
O -0.31409654 -1.4640772 0.33728728
C 0.83633727 -0.24591333 -1.4098066
N 1.4447409 -0.2487992 -2.3913777
H -1.7215939 0.76164037 -0.9182263
H -1.5103939 0.8522056 0.8435893
H -0.52669513 1.8781327 -0.22907285
H 1.6816237 -1.1584489 1.002904
H 0.36482882 -0.33453006 2.0064895
