10

C 0.2902336 -0.608498 1.0488942
C -0.95945495 -0.09688028 -1.207297
N -1.1230936 0.94094944 -0.41245422
C 0.9935571 -0.22702542 -0.06890356
N 0.07061513 -0.9100518 -0.973436
C -0.18235432 0.7436083 0.5744048
H -1.6776717 -0.34532943 -1.984669
H 0.56360316 -0.98564047 2.0267837
H -0.02263311 1.5481392 1.2881894
H 2.047199 -0.059271656 -0.2915123
