9

N -0.41458315 0.6436013 1.13435
C 0.06432704 -0.00013833446 -0.96096957
C 0.4976441 -0.3347903 1.1434828
N 0.9047505 -0.7724645 -0.059679788
C -0.6978329 0.8532982 -0.16053061
H 0.8878829 -0.7645222 2.0581498
H -0.10346931 -1.2315506 -0.6528045
H 0.28618503 0.017465683 -2.0209675
H -1.4249043 1.5891007 -0.48103052
