9

N -0.6567862 0.28715044 0.98810935
C 0.6603363 -0.35835528 0.8706154
C -1.0032866 0.502929 -0.20855212
N -0.026927726 0.05425733 -1.1520255
C 1.042521 -0.49624738 -0.582063
H 1.4108402 0.23066436 1.4111902
H -1.9256123 0.97149694 -0.53557765
H -0.14280075 0.1478493 -2.1513996
H 0.6417162 -1.3397447 1.359703
