9

N -0.14015721 0.77630415 1.22153405
C -0.36909592 0.81775254 -0.10792211
O -0.76347006 1.77782589 -0.73659143
C -0.09391588 -0.47174937 -0.80354154
C 1.24044688 -1.68242679 -0.86553882
C 0.20258869 -0.96818159 -2.00790430
N 0.18312536 -1.77182266 -0.15733050
H 0.09433680 -0.07906176 1.69627183
H -0.35385873 1.60135998 1.76102272
