9

N 1.3131415 0.7771248 -0.06348576
C -1.8650109 -0.9418182 0.1787539
O -0.19325748 1.6845486 1.4018759
C 0.124149784 0.84141684 0.58976144
C -1.5604378 -2.1775475 -0.9636778
C -0.8159419 -0.2209409 0.23702858
N -0.53836215 -1.4837979 -0.84080696
H 1.5339977 0.045438714 -0.7145164
H 2.0017211 1.4755753 0.1750672
