9

N -0.25838053 1.2203372 1.5205638
C -0.36812508 1.1568713 0.16685487
O -0.7401873 2.065776 -0.54313636
C 0.01209327 -0.1434681 -0.40790287
C 0.3008791 -1.1644444 -0.97516084
C 0.63049096 -2.338108 -1.6293678
N 0.904557 -3.3206022 -2.17555
H 0.042737488 0.4367071 2.0777936
H -0.524065 2.0869315 1.9659055
