9

N 0.39546657 1.023486 0.9542118
C -0.25029168 -0.7728158 -0.46600056
O -1.5658503 -0.08146275 1.3518857
C -0.5498034 0.091253944 0.7113277
C 0.2522773 -0.5422396 -2.1819162
C -0.8489573 -1.552773 -1.3704981
N 1.026474 -0.82654953 -1.2086399
H 0.27933666 1.609735 1.7667753
H 1.2613479 1.0513657 0.4428543
