10

C -1.2219796 -0.3822091 -0.3497132
C -0.09090201 -0.8109215 -1.0464824
N 1.1367048 -0.43109798 -0.69987774
C 1.2216469 0.38121074 0.34970236
C 0.09051702 0.81160957 1.0462934
N -1.1369429 0.4315205 0.70038843
H -2.2158372 -0.7031201 -0.64862424
H -0.1813461 -1.4751706 -1.9019612
H 2.2160199 0.70224535 0.6493603
H 0.18211998 1.475933 1.9009142
