10

C -0.46218136 -1.3612926 -0.4302689
C -0.7747324 1.401896 0.45262107
N 0.14546059 1.0514205 1.2683283
C 0.42106193 0.951239 -0.2011407
C 0.7283136 -1.502137 0.0028817526
N 0.52624226 -0.33133236 -0.88095236
H 1.1442 1.6629093 -0.61374265
H -1.7891043 1.7750345 0.5018455
H 1.5416886 -1.9963098 0.5052317
H -1.4809488 -1.6514276 -0.60480374
