10

C -0.7734031 -0.34849668 0.72207284
C -0.56215835 0.6803769 -0.3344957
N 1.5427439 -0.08742534 -0.04128898
C 0.4512301 -1.0204387 0.2344408
C 0.9089199 0.96064264 -0.3874956
N -0.69665986 -0.77036816 -0.6717138
H 1.3820071 1.894001 -0.67387015
H -1.5955265 -0.5894227 1.3836036
H -1.3497118 1.3362744 -0.6839572
H 0.69255847 -2.0551434 0.45270428
