10

C -0.4824218 -0.61813545 0.6000589
C -0.95354885 -0.030957932 -0.71895206
N 1.2409688 0.7997492 0.2245819
C 0.6899381 0.961057 -0.9550321
C 0.6634383 0.13356476 1.1493477
N -0.44392672 -1.2081805 -0.76522106
H -1.7881398 0.40614855 -1.2531302
H -1.1187894 -1.1612476 1.2972684
H 1.2624454 0.5158913 -1.7770785
H 0.9300361 0.20211077 2.198157
