9

O 1.6823914 0.92914474 0.609002
C 0.56426203 0.30794019 0.1941523
N 0.43142 -0.24630526 -0.9990023
N -0.8097331 -0.7272133 -0.9583965
N -1.481651 -0.5292039 0.15476406
C -0.626609 0.13745098 0.92622405
H 2.325605 0.89158636 -0.11038199
H -1.2076353 -1.2184216 -1.741529
H -0.8780501 0.45502186 1.925167
