9

O -1.1037229 0.9150417 1.7010627
C -0.746309 -0.73089 -0.16316597
N 0.7151322 0.72943825 0.17919289
N 1.1710554 -0.8156106 -1.6478041
N 0.44811934 -0.40920904 -0.72988695
C -0.45155025 0.37160134 0.68842584
H 1.9964241 -0.2125641 -1.6552376
H -0.5830245 1.6650138 2.0225449
H -1.4461246 -1.5128214 -0.39513168
