11

O 0.52612793 -1.2214955 -1.0981346
C -0.273391 0.91250086 -0.7582344
C -1.0516967 0.50491005 0.30419555
C 0.6663393 -0.4088618 -0.08451801
C -0.17993939 -0.3480403 1.1856308
N 1.1814177 0.854895 -0.3502567
H 0.32115856 0.11185787 2.039563
H -0.13811463 -0.26954013 -1.6426309
H 1.7134709 0.80875677 -1.2194816
H -2.1213665 0.3559954 0.18343219
H -0.6440063 -1.3009781 1.4404346
