11

N 0.7974797 -0.96514076 0.18821907
C -0.27345762 -0.6741879 -0.86274713
O -1.4719964 -0.14907771 0.3967846
C -0.70124227 0.997677 0.5566726
C 0.36874443 0.56892496 -0.38275334
O -0.5537885 -1.364509 -1.7887379
H 0.53958476 -1.2169001 1.1334451
H -1.1468662 1.9297462 0.16512655
H 1.2119331 1.1006318 -0.8155102
H 1.6243976 -1.4047904 -0.19361949
H -0.3947885 1.1776259 1.6031202
