11

N 0.94787824 1.1444801 1.1227651
C 0.120686896 0.3233043 0.3583221
C -1.204059 0.12701121 0.31295067
O -1.5098634 -0.72721726 -0.7379026
C -0.348269 -1.0891231 -1.3596352
O -0.27503747 -1.8041875 -2.3216534
N 0.66357225 -0.4689585 -0.65755683
H 1.6157223 0.62377745 1.6809188
H 0.41848963 1.7627298 1.7213963
H -2.0264914 0.49250442 0.90577936
H 1.5973707 -0.38432074 -1.0253848
