11

N -0.50555617 1.1229638 1.647539
C 0.045745067 -0.46970642 -1.3218101
C -0.11836204 0.24867865 0.6418166
O 0.5760613 -1.4395608 -0.60034406
C 0.47146276 -0.9675801 0.70843697
O 0.025957003 -0.6837909 -2.6340494
N -0.38747528 0.568144 -0.6845615
H -0.6025471 2.0675452 1.302657
H -0.4037183 0.08852864 -3.0275471
H 0.062490344 1.0812861 2.4807205
H 0.8359423 -1.6165084 1.487142
