12

C -0.89411482 -0.83808879 0.61243441
C 0.18230689 1.11628648 -0.06976529
N -1.07541582 0.51185924 0.33679460
N 0.37088418 -1.16965802 0.14520916
C 0.90124113 -0.09792207 -0.68024952
O -1.68640267 -1.57708865 1.15431161
H 0.74572737 1.50534542 0.78797383
H 1.98786473 -0.01791532 -0.60130605
H 0.51469125 -2.13655387 -0.10530266
H -1.70787919 1.00193076 0.95057283
H 0.03517468 1.92078613 -0.79441520
H 0.62592222 -0.21898148 -1.73625760
