12

C 1.0748856 0.19424607 0.7816941
C -0.3160766 0.5924695 0.34789047
N -1.0197549 1.5470666 0.8091925
N -0.9058465 -0.1708819 -0.6655242
C -0.39421234 -1.2488837 -1.3432729
O -0.9993493 -1.840869 -2.2071502
H 1.4145927 0.86222774 1.5776027
H 1.7879454 0.25999454 -0.04746254
H 1.0913786 -0.83171594 1.1653235
H -0.516752 2.0438998 1.5403546
H -1.840387 0.12056961 -0.9285851
H 0.6235763 -1.5281235 -1.0300628
