11

C -0.47606462 -0.23918511 -0.28171703
C 0.9948212 1.7247428 -0.6278959
C 0.5307372 0.3163001 -0.902262
N -1.4931662 -0.70582706 0.24437842
N -1.3057892 -2.6317117 1.2616005
N -1.3628104 -1.4094687 1.4426285
H -1.2738104 -3.0407534 2.2022367
H 0.9174079 2.3343844 -1.5341369
H 2.0402298 1.737016 -0.30077782
H 1.0411898 -0.28155446 -1.6558609
H 0.38725474 2.1960573 0.15180641
