11

C -0.18223248 -0.71721673 -0.9771602
C 0.0060798344 0.056547903 0.04984517
C -0.79967993 1.0450903 -1.0538164
N 1.2031237 -1.4285041 1.5956641
N 1.3347411 -0.21837002 1.8452826
N 0.5188016 0.62242836 1.0773349
H -1.5090792 1.4860464 -0.34741017
H -1.3623846 0.6845665 -1.9167532
H 1.8560703 -1.8960917 2.2313488
H -0.037933037 1.7474239 -1.383535
H -1.027507 -1.3819208 -1.1208004
