11

C 0.34539751 2.00423360 -0.47160196
C -0.23190183 -0.40390693 -0.38248171
C 0.59633814 0.54150176 -0.73956821
N -1.07732202 -1.26919425 -0.12641666
N -0.43278011 -2.98186104 1.06950172
N -1.03153969 -1.90061558 1.11741554
H -0.51588982 -3.37628721 2.01324691
H 0.29764395 2.56101102 -1.41322128
H -0.60106520 2.15195543 0.05905484
H 1.14865863 2.43565771 0.13558897
H 1.50246043 0.23750543 -1.26151826
