9

O 1.8277838 -0.34268758 0.10890972
C -0.61925167 -0.6598336 -0.0640382
N 0.4551682 1.4557002 -0.24749778
N 0.34627745 2.5689025 -0.42466545
N -1.7923647 -0.18653016 -0.22938153
C 0.5634958 0.17488447 -0.027881837
H -0.36857122 -1.7209102 0.06310751
H -2.4777234 -0.93946314 -0.2256405
H 2.0651855 -0.35006267 1.0470881
