9

O 1.66367571 0.54851606 0.63356374
C 0.58697966 0.04160988 -0.05111767
N 0.81244421 -0.50400300 -1.21384175
N 0.99230818 -0.96811632 -2.23105005
N -1.73637175 -0.52532144 -0.09503185
C -0.74105774 -0.02023334 0.52285549
H 1.75958701 1.48733606 0.41906275
H -2.57223547 -0.47133042 0.48380788
H -0.76532992 0.41154268 1.53175123
