9

O 1.947182 -0.43094996 -0.36894342
C -0.2463629 0.050520208 0.7614487
N -0.14851713 -0.24473968 -1.4552183
N -1.2834471 -0.15112363 -1.6744816
N -1.506852 0.15783665 0.5486487
C 0.61641616 -0.17560695 -0.3697271
H 2.4380243 0.37951198 -0.5650167
H 0.24151742 0.10693903 1.7355471
H -2.0579607 0.30761233 1.3877424
