10

O -1.41784302 1.86735215 0.57374109
C -0.01109878 0.59609347 -0.98859692
C -0.69247856 0.97905042 0.16295493
N 0.56437321 -0.64152594 -0.40101302
C -0.14730256 -0.29978328 0.89644813
H 0.56834818 -0.14433133 1.70592933
H 0.16734892 0.92082222 -2.00184444
H -0.87302888 -1.07151285 1.15968629
H 1.58164652 -0.67552732 -0.30219347
H 0.26003507 -1.53063707 -0.80511189
