11

N 0.50141962 -1.29897972 -1.38080601
C 0.50395026 -0.62564603 -0.20234958
C -0.45650536 0.00175385 0.74923196
C -1.01609560 1.34752478 0.39823205
C 1.04687640 -0.16769044 0.87845871
O -0.55640743 2.07915798 -0.44730394
H 1.39885927 -1.37575760 -1.84078150
H -1.13397453 -0.61519835 1.34748517
H -0.24803200 -1.03823983 -2.00669504
H -1.91721695 1.64043932 0.97880150
H 1.87712636 0.05263619 1.52572651
