11

C 0.98191357 0.4268485 0.2769878
C -0.47610238 -0.9129866 0.50652486
N -0.9604211 -0.13741218 -0.6348865
C -0.12100126 1.0429597 -0.5617744
N 2.0819328 0.2543658 0.75298566
H -0.43434143 -1.9903102 0.3230109
H -1.0617828 -0.7012727 1.40896
H 0.23004068 1.4468937 -1.518328
H -0.80931437 -0.6347095 -1.5027297
H 1.160137 -0.643695 0.9320541
H -0.59106076 1.8493186 0.017195046
