11

C -1.5789466 1.3897008 -0.35686326
N -1.4178652 0.80503875 0.9177103
C 1.2593256 -0.7164556 -0.81078064
N -0.5844253 0.8509174 -1.0699323
C -0.3815008 -0.036784302 0.9502655
N 0.12420937 -0.003035391 -0.26420885
H 1.988598 0.00825223 -1.1752225
H -0.018682733 -0.6258398 1.7801491
H 1.7059947 -1.3399831 -0.035538234
H -2.014689 1.0033933 1.7059666
H 0.9179822 -1.3352044 -1.6415458
