11

C 1.4556053 -0.63788974 -0.6747069
C 0.24115442 0.02939297 -0.14060625
N -1.6054746 0.7562616 0.73371404
C -0.8286072 -0.38903403 0.55219793
C -1.0618387 1.8594908 0.181697
O 0.08945666 1.3819456 -0.3561628
H -2.4886484 0.78840524 1.2185109
H 1.5174869 -0.51716757 -1.7601136
H -1.1094129 -1.3597556 0.9256282
H 1.42911 -1.704973 -0.44228053
H 2.3611686 -0.20667627 -0.23787822
