11

C -1.99983860 0.70168741 -0.39617639
C -0.62140336 0.37356675 -0.08192640
C 0.19523946 1.30286186 0.42004151
O -0.36028694 -0.91501352 -0.36785312
C 0.96116665 -1.36092726 -0.09448904
N -3.09541320 0.98379748 -0.63953502
H 1.19035750 -1.26263532 0.97157060
H 1.23196008 1.08605763 0.66444107
H -0.17003858 2.30310122 0.59420791
H 1.69009715 -0.80001586 -0.68857198
H 0.97815987 -2.41248048 -0.38170955
