10

N 0.99716951 -0.43007542 1.73069304
C -1.02868638 -0.06617712 0.35291943
C 0.45299682 -0.17339621 0.63334398
C -1.19114698 0.67045595 -0.91023427
C 0.19633889 0.48564185 -1.51577912
O 0.50742846 0.63536515 -2.65904368
O 1.11174501 0.10165398 -0.54965796
H -1.42618017 -1.05595211 0.04887906
H -1.63227326 0.25016296 1.20769404
H 2.01260817 -0.41767871 1.66118496
