10

O 0.9576552 2.0891082 -1.1662245
C 0.6719539 1.1150666 -0.54854673
O 1.1271211 0.7555882 0.7083434
C 0.49832115 -0.5374272 0.56811875
C -0.96558124 -0.36906445 0.5083168
C -0.121756986 -0.14679824 -0.7429415
H 1.075004 -1.4068899 0.84574884
H -1.5545398 -1.2803085 0.47736302
H -1.4287596 0.4735983 1.0163158
H -0.25941792 -0.6928728 -1.6664937
