10

O 1.06003085 1.98737254 -1.71734399
C -0.38175702 -0.71226270 0.25956847
O 0.62374061 1.21578650 1.26002925
C 0.06057860 0.15577033 1.40497666
C 0.54663099 1.01226731 -1.34566475
C -0.04961553 -0.13722721 -1.08722280
H -1.46234506 -0.87924254 0.37816998
H 0.07581044 -1.70110704 0.40531215
H -0.16230747 -0.23650312 2.41770311
H -0.31076662 -0.70485387 -1.97552791
