11

O -1.4781226 1.6270889 1.2683251
C -0.7536459 0.8403548 0.6940704
N -0.75860924 0.55926704 -0.6513822
C 0.22398542 -0.42746246 -1.0330547
C 0.87462234 -0.7437257 0.28730124
C 0.32287937 -0.025569374 1.2631514
H -1.3960977 1.0095568 -1.2854621
H 0.9514497 -0.032070186 -1.7539037
H -0.23566003 -1.3192487 -1.4789116
H 1.6801308 -1.4652532 0.3731013
H 0.56906796 -0.022937696 2.316765
