11

O 0.4056931 -2.1052623 1.5263921
C -0.7029335 1.4822233 -0.59547704
N -0.2173418 -0.75687474 1.9059765
C 0.066145584 0.5464801 -1.159379
C 0.40268 -0.76844925 -0.61167586
C 0.22449806 -1.1137961 0.65272284
H 0.5070623 0.7563227 -2.1335943
H 0.53684455 -0.28180563 2.4079118
H 0.84136933 -1.5218087 -1.2603992
H -0.8633981 2.4333272 -1.0917071
H -1.2006197 1.3296438 0.35922918
