12

O 1.7624525 -0.6649023 0.11556964
C -0.8172654 -0.3009451 -0.54383147
C 1.499443 -0.33171564 -1.118503
O 0.28002864 -0.06127273 -1.4834737
C -0.8858899 0.68857515 0.61361355
O -0.23940535 0.27169657 1.7861577
H 0.6647705 0.017059557 1.5605055
H -0.74430597 -1.3229934 -0.16535746
H -1.9409723 0.80578697 0.87950397
H -0.52855676 1.6653458 0.25195327
H 2.6384559 -0.56006736 -0.7012593
H -1.6887549 -0.2065676 -1.1948786
