9

O 1.4917316 -0.42979038 1.3490006
C 0.59231645 -0.19621013 0.38047937
N 0.82179517 -0.51904607 -0.9113744
N -0.21659522 -0.18215793 -1.621161
N -1.1001811 0.35145858 -0.7890211
C -0.65148854 0.37344953 0.49529883
H 2.2599285 -0.8420802 0.9281698
H -1.2172985 0.7662124 1.3230629
H -1.9802084 0.6781641 -1.1544548
