9

O -0.00311085 1.3839263 1.4285487
C 0.030786498 0.5173915 0.41361302
N 0.29882944 -1.3090255 -0.7704999
N -0.16738501 0.8772688 -0.85403776
N 0.032155976 -0.18664488 -1.6036428
C 0.2611914 -0.85330683 0.4865741
H -0.6925464 -1.1991793 -1.4999506
H 0.41111836 -1.4913619 1.3442588
H -0.17103943 2.2609315 1.0551364
