12

O -0.77143536 1.15589677 0.48686446
C -0.64820760 -0.88881647 -0.92816311
C 0.97739051 -0.40539348 0.85051368
O 1.81042012 0.41166432 0.06700977
C -0.48255530 -0.22537285 0.40557880
O -1.10771786 0.03003824 -1.76312058
H -1.19513026 1.40342656 -0.34714400
H 1.43450825 1.30081342 0.13848813
H -1.23094293 -0.38467758 -2.62721129
H 1.28708952 -1.44153012 0.70340163
H 1.05026722 -0.15606040 1.91860607
H -1.12368654 -0.79998814 1.09517621
