12

O -0.66092664 1.4901236 -0.8116621
C 0.18633929 0.4172179 -1.1335251
C 0.4798998 -0.40233043 0.12166343
O 1.0340339 0.45466146 1.0845395
C -0.79224825 -1.0141795 0.6665997
O -1.1270237 -0.826756 1.810619
H -0.25671148 1.915917 -0.041858513
H 1.1403816 0.75429875 -1.5639174
H -0.3274622 -0.19684295 -1.8815845
H 1.1667308 -1.2281146 -0.13049166
H 0.53418285 0.28985783 1.9018451
H -1.3771962 -1.6538528 -0.022227693
