9

N -1.7724429 0.39250734 -0.03100188
C -0.60466367 -0.090831414 0.08211499
C 0.65830463 0.5429981 -0.26927158
N 1.7810191 -0.09605196 -0.09412072
N 2.7570848 -0.6363062 0.052229367
O -0.44066262 -1.3352133 0.58106464
H -1.3381542 -1.6504314 0.76764774
H -1.7679 1.3350135 -0.41095963
H 0.7274149 1.5383155 -0.67770296
