9

N -2.2801657 -1.2638562 1.3476305
C 0.13472924 0.22634059 -0.42090467
C -0.061888926 -0.38536495 0.8670783
N -1.2587333 -0.85824025 1.123343
N 1.2150922 0.7607124 -0.9324857
O -0.8027138 0.3306287 -1.2978164
H 0.6853005 -0.49505687 1.6398259
H 0.25079006 0.8649291 -1.8465722
H 2.1175892 0.81990755 -0.48009858
