9

N -0.88562274 -0.5775856 -1.2244302
C 0.23361154 -0.14594878 -0.55165255
C -0.054022968 0.36974663 0.78875256
N 0.95847684 0.80432993 1.4847674
N 1.8353354 1.1749549 2.0841975
O 1.3466513 -0.15546373 -1.0421226
H -0.6995022 -1.0897689 -2.0751028
H -1.7049658 -0.84607935 -0.7051841
H -1.0299612 0.4658148 1.2407755
