9

N -1.44976104 -0.59900909 -0.91430729
C -0.00232333 0.65776719 0.60667626
C -0.31806462 -0.34730814 -0.39852636
N 1.22228580 0.79361675 1.03261986
N 2.27492765 0.92112486 1.40902929
O 0.76480527 -1.05846645 -0.78059969
H -0.73910611 1.31777432 1.03538464
H 0.43375330 -1.68032069 -1.44645908
H -2.18651673 -0.00517886 -0.54381692
