11

C -0.47108695 -1.81470493 1.37216600
C 0.70011714 -1.11678082 0.89655605
N 0.53151386 -0.25084539 -0.06682484
C -0.12576463 1.80106537 -1.32679658
C 0.26604431 0.40710845 -1.02033081
O -1.59972143 -1.65489449 0.94184141
H -0.26212054 -2.53324391 2.19206461
H -0.07963014 2.45410567 -0.44977138
H 1.69793144 -1.26085200 1.29247870
H 0.49773500 2.19809903 -2.13342168
H -1.15501800 1.77094299 -1.69796189
