11

C 0.05399639 1.616942 -1.3010566
C -0.34370852 -1.8473123 0.6821978
N 0.47601786 0.27647802 0.8384968
C 0.58223474 0.7746735 -0.22898783
C 0.18627378 -0.82137036 1.5301598
O -0.49585912 -1.7073071 -0.5273869
H 0.8315849 2.26878 -1.7046922
H 0.3758258 -0.8789718 2.5916688
H -0.2514992 0.91761684 -2.0893214
H -0.81393754 2.1971748 -0.9752682
H -0.60092896 -2.7967036 1.1841894
