12

N -1.60477794 0.96404290 2.20399303
C -1.06722832 0.29162326 1.43483310
C -0.69406928 -0.19548172 -1.02047942
C 1.33854448 0.52292242 -0.63451219
N 0.42454659 0.60526060 -1.51487463
C -0.34680683 -0.55022327 0.46005005
N 1.08826154 -0.27218235 0.47981228
H -1.63269772 0.35765387 -1.10462896
H -0.78026695 -1.10666500 -1.62066695
H 2.31050145 0.99777349 -0.73405290
H -0.54892155 -1.59966300 0.69000279
H 1.51291452 -0.01506106 1.36052379
