12

N 0.77228326 0.36289525 0.8720676
C -0.19478096 -0.64089334 0.43125722
C -1.560449 -0.296224 0.87178934
C -0.01862561 -0.5575725 -1.118074
N 0.6664463 0.70751363 -1.377207
C 1.0465907 1.1454942 -0.2454504
N -2.6180775 -0.00082291156 1.2279844
H 0.6111894 0.8253513 1.7565321
H 0.60155916 -1.3851947 -1.4762952
H 1.6108726 2.064947 -0.1178388
H 0.057506114 -1.6304148 0.8214506
H -0.97451425 -0.595079 -1.6462157
