12

N -0.53839135 0.51377034 1.0202184
C -0.21288024 -0.8818851 -0.6872089
C -1.3125434 0.24109155 -0.17622401
C 0.5593854 -0.3863474 0.6285145
N -1.5117687 -1.1246508 -0.37945694
C 1.8019156 0.3294475 0.35642877
N 2.7790227 0.89173716 0.096833885
H -0.3180147 0.49964267 -1.1033294
H -2.0219498 0.95205826 -0.6039268
H -0.22899902 1.4718913 1.1156154
H 0.7223917 -1.2275381 1.3095319
H 0.28183168 -1.2792174 -1.5769967
