9

O -1.9684366 0.4194074 0.07337374
C -0.656836 0.13289768 0.029991535
N -0.11016202 -0.8963674 0.65284
N 1.1744156 -0.7827129 0.3276089
N 1.497477 0.22853744 -0.44768545
C 0.34010532 0.84429574 -0.66245615
H -2.3976543 -0.23382846 0.6414852
H 1.8596368 -1.4413016 0.65951866
H 0.26145414 1.7290721 -1.2746764
