9

O 0.00020648153 -1.7299378 -0.97805923
C -0.9717145 0.12795049 0.26712093
N 0.97080517 1.054099 0.7410763
N 1.235318 0.030788833 -0.040231034
N -0.42892584 1.1461444 0.94516414
C 0.08109561 -0.58963543 -0.28939754
H 0.24873601 1.9956665 0.3504173
H -2.0359824 -0.04820018 0.22748557
H 0.90046144 -1.9868758 -1.2235763
