11

C 0.59357995 0.7332065 2.2429395
C 0.3042721 0.16632877 0.92672163
C 0.0755256 -0.3166864 -0.15123248
C -0.14467075 -0.9704503 -1.4404925
O 0.3268712 -2.0546367 -1.7150489
N -0.9349668 -0.2606865 -2.2975214
H 0.45958588 -0.023472594 3.0212874
H -0.06556105 1.5759021 2.4649029
H 1.6291405 1.0828401 2.2851505
H -1.0324392 -0.61893654 -3.2357197
H -1.2113372 0.6865917 -2.1009867
