11

C 0.35418728 0.60300976 -0.2541669
C -0.7439732 -0.27092606 -0.86379987
O 1.4772056 -0.2720985 -0.06411492
C 0.13545878 0.3892838 1.1871731
O -0.6000851 -1.3903996 -0.06935001
H 0.65322256 1.5748367 -0.6487725
H 0.9078346 -1.1442807 -0.076779254
H -0.79920965 0.020166246 1.5881406
H -1.7131788 0.24522156 -0.74351037
H 0.909715 0.6972662 1.885883
H -0.5811773 -0.4520795 -1.940703
