9

O -1.2746246 -1.2329683 1.6645676
C 0.104351826 -0.2777866 -0.3189382
N -1.1700412 0.4536053 -0.06986418
C -0.89251506 -0.5611172 0.757122
C 1.3602126 0.5168967 -0.11634063
O 1.3810912 1.6556 0.26959136
H 2.2888653 -0.043505322 -0.35108605
H -1.9436023 0.5079881 -0.7170574
H 0.14626226 -1.0187126 -1.1179944
