9

N 0.97446203 -0.8872095 0.35831663
C -0.9962731 1.6968578 -1.2858025
O 1.5631006 0.44797724 -1.3855205
C 0.7652381 0.09183796 -0.5480509
C -0.598869 0.7479689 -0.4450646
C -1.5581138 0.3811175 0.5549478
N -2.30046 0.04610528 1.3751564
H 1.8673105 -1.3592039 0.33803946
H 0.28360495 -1.1654514 1.0379783
