9

N 0.89707106 -2.52528022 0.05933504
C 0.00392043 -0.29177610 -2.33238629
O -0.75318186 1.88720459 -0.65940113
C 0.05592529 -0.32059662 -1.00512398
C -0.33452397 0.87147979 -0.15165730
C 0.52107870 -1.55382738 -0.44162637
N -0.16828783 0.67659270 1.17431225
H 0.19185980 -0.18069482 1.56417613
H -0.41386188 1.43689769 1.79237209
