9

N 0.09552781 -0.39101407 2.5857017
C -0.29555005 -0.7874556 1.5633912
O -0.46130082 -0.20175615 -2.1537573
C -1.1415669 -1.8958476 0.5931261
C -0.11367025 0.044171486 -1.0228266
C -0.53747624 -0.87650335 0.07984506
N 0.63956434 1.0936787 -0.6294024
H 0.8861427 1.2702675 0.33059737
H 0.92832947 1.7444592 -1.3466752
