11

N 1.2672186 0.18977997 1.580475
C 1.838867 -0.14545603 0.41371682
C 0.8984862 -0.2529305 -0.61959517
C -0.24651736 0.056543797 0.09159641
N -0.052999116 0.3197336 1.3766403
N -1.655783 0.1388921 -0.334692
H 1.0386176 -0.5062742 -1.6600558
H 2.909254 -0.29904434 0.35250852
H -1.8184701 0.855125 -1.046068
H -2.0235279 -0.7500198 -0.6805961
H -2.1551456 0.39365047 0.52607006
