11

N -1.65849032 0.10960659 0.33214982
C 0.60545496 0.01587901 -0.94250812
C -0.19474994 0.00731156 0.18541018
C 1.85729639 -0.12616973 -0.32906240
N 0.45718517 -0.11954417 1.33299208
N 1.75617814 -0.20598700 1.00656256
H 2.82731262 -0.17309012 -0.80857377
H 0.35276778 0.10263582 -1.98893089
H -2.03563765 0.99411639 -0.01557820
H -1.80518872 0.05196594 1.34720316
H -2.16212857 -0.65672411 -0.11966442
