11

N -0.5783915 -1.0197684 0.21859051
C -1.2947918 0.31905156 -1.262034
C 0.25310215 0.025338098 0.18556643
C -0.1359826 0.9510354 -0.7554316
N -1.5508963 -0.8599655 -0.6730706
N 1.203313 -0.35540554 1.216236
H 2.1498065 -0.5446699 0.8948198
H -1.957268 0.6778361 -2.0388415
H 0.37881082 -1.3298895 1.2143898
H 1.2267736 0.24109045 2.0399115
H 0.30552435 1.8953469 -1.0401362
