11

N 1.0348492 -0.017797569 -1.5497116
C 0.27798417 -0.027020015 -0.3752451
C -0.37640238 0.96775633 0.31881434
C -0.8737662 0.3160165 1.4700563
N -0.57404464 -0.96780515 1.4937739
N 0.13258661 -1.1565361 0.35773894
H 1.0311286 0.8977525 -1.9796576
H 0.7326545 -0.7051766 -2.2295618
H -0.4821013 2.0044985 0.03402633
H -1.4505225 0.74503297 2.278858
H 0.5476338 -2.0567212 0.18090829
