13

C -0.80549024 1.43685637 0.10050394
C 0.03742365 0.20313114 0.11027665
N 0.83755592 -0.04098982 1.10042701
O 1.60520145 -1.04669083 1.24153624
C 0.00638776 -0.81591829 -1.00174641
O -0.10793878 -2.13162816 -0.53566988
H 0.86309690 0.64667651 1.86103680
H -0.61265103 2.06738604 0.97354248
H 0.61039781 -2.23319268 0.11186396
H -0.61425973 2.03235754 -0.80063597
H -1.86980859 1.17123193 0.09630056
H -0.86052293 -0.61389944 -1.63924904
H 0.91060789 -0.67532037 -1.61818604
