13

C -0.5494369 0.026101407 1.7056708
C 0.025589067 0.17055558 0.32967833
N 1.1388514 0.789077 0.23037972
O 1.5640999 0.8758287 -1.1055588
C -0.71702 -0.41599655 -0.8572906
O 0.06084702 -1.3174143 -1.606407
H 0.0821887 0.5307261 2.4393265
H -1.5580999 0.4529952 1.749385
H -0.63374364 -1.0328221 1.9710393
H 2.4191933 1.3114798 -1.0232645
H -1.1004453 0.4122136 -1.4730021
H -1.583236 -0.9799003 -0.49314475
H 0.85121244 -0.8228442 -1.8668116
