13

C -0.48334965 0.81804615 -0.81738013
C 0.1966668 -0.2264105 0.047832742
N 0.53220713 0.113568164 1.2288235
O 0.2884746 1.3705053 1.7561017
C 0.47866502 -1.609235 -0.4402508
O -1.5889385 1.4026138 -0.18307649
H -0.8411382 0.33693954 -1.733021
H 0.27317232 1.568338 -1.1010827
H 1.0757818 -1.5717304 -1.3597594
H -1.2382423 1.7666423 0.64208406
H 1.020284 -2.1878178 0.3113685
H -0.46274292 -2.117661 -0.6786118
H 0.74915946 0.3362015 2.326972
