11

C 0.14125263 0.67025044 0.37055621
N 0.04895482 -1.27812023 -0.37680364
C -0.33972155 -0.66233250 0.91176286
C 0.27290909 0.03673112 -1.01107862
N 0.35449501 1.77463266 0.93572297
H 0.71349083 2.46684107 0.27427209
H 1.24359328 0.14321121 -1.51143297
H 0.19289123 -1.04851979 1.78738919
H -0.51819942 0.37180513 -1.69778734
H -0.69107542 -1.82172891 -0.80731893
H -1.41859048 -0.65277006 1.12471837
