11

C 1.3795751 0.005681044 0.021046223
N 0.23850103 -0.62460285 -0.6338018
C -0.9956258 -0.499986 0.10982685
C -1.4273502 0.9020368 0.33937275
N -1.7072955 2.01447 0.4745966
H 1.2455915 1.081246 0.21215083
H 2.2653098 -0.1330507 -0.6049016
H 1.5645627 -0.49428898 0.9790331
H 0.1129434 -0.23981902 -1.5619863
H -1.7973917 -1.0245962 -0.42016855
H -0.8788203 -0.98708993 1.0848321
