9

O 1.06989678 -0.10628546 0.67772869
C 0.77370789 0.95010375 -0.16063259
C 0.20064850 -1.08077575 0.79556965
C -0.54129084 -2.00850474 0.96130113
C -0.32840405 1.09179765 -0.87671849
H -0.43863304 1.97316627 -1.49542715
H 1.59629594 1.65209986 -0.13350807
H -1.20239452 -2.83267354 1.10595396
H -1.12982644 0.36107206 -0.87426717
