9

O 0.5132759 0.61595166 0.9861254
C 0.3531198 1.1515282 -0.27642894
C -0.17746529 0.53971255 -1.3212581
C -0.22205678 -1.7301236 1.4861192
C 0.11687506 -0.6146908 1.2040609
H -0.52334607 -2.7226381 1.7338619
H 0.7325761 2.1645293 -0.2712269
H -0.54593056 -0.47956464 -1.2818742
H -0.24704815 1.0752953 -2.259379
