9

O 2.5031514 -0.3081082 -0.05087889
C 1.4276699 0.2192763 -0.13197298
C 0.21081454 -0.23521203 0.66364133
C -1.0244259 -0.095322855 -0.107106484
C -2.011957 0.03916881 -0.77897656
H 1.2556221 1.0993593 -0.7866889
H 0.15844394 0.3936714 1.5627354
H 0.37500995 -1.2647091 0.9980852
H -2.8943288 0.15187648 -1.3688381
