10

C -0.22474678 0.97411996 -0.37002146
C -0.62889796 -0.03785887 -1.2356966
N -0.45424825 -1.3355962 -0.9874342
N 0.13034776 -1.7114171 0.13651717
C 0.5411672 -0.7873483 1.0043801
C 0.3912901 0.5805054 0.8040429
H -0.39001304 2.0188181 -0.6153052
H -1.1173509 0.18482667 -2.181102
H 1.0102681 -1.1815652 1.9027747
H 0.7421837 1.2955151 1.5418448
