10

C -0.90535191 0.48657537 -0.28650146
C 0.47168588 0.14258450 -0.78197971
N -1.58498229 -0.77217978 0.10056435
N -0.70396591 -1.54526002 0.48863959
C 0.57807983 -0.81778719 0.36893219
C 0.31205495 0.64915881 0.57914679
H -1.49442970 1.31422537 -0.66002742
H 1.08393000 0.41097094 -1.62910621
H 1.49440725 -1.31470859 0.65841081
H 0.74857183 1.44642016 1.16192128
