10

O 0.98941517 0.5062921 -1.7986408
C 0.38219616 0.18435314 -0.6563054
C 1.1492785 -0.27872926 0.4347563
N 0.5665055 -0.6032764 1.566685
N -0.7610861 -0.49290836 1.6816688
C -1.4270813 -0.054975133 0.63112575
N -0.92110866 0.29977864 -0.56222737
H 0.29947895 0.7959552 -2.4178915
H 2.2270925 -0.38338727 0.37598982
H -2.504691 0.026897326 0.74483913
