10

O -1.0563121 0.6873177 1.8759274
C -0.18679848 0.120367244 -1.4629593
C -0.4075295 0.26258418 0.7940651
N 0.91658926 -0.5963712 -1.4562373
N -0.88178974 0.5689799 -0.39203465
C 0.782621 -0.51412404 0.9577554
N 1.3328652 -0.87847733 -0.20927279
H -1.8283055 1.1862749 1.5674704
H 1.913938 -1.2195714 0.76532364
H -0.58527803 0.38301995 -2.440038
