11

O -0.27386263 1.6395301 2.1663954
C -0.21242067 0.8662209 1.2328384
C 0.7527957 1.0199106 0.13461724
C 0.77982 0.13610981 -0.8728432
N -0.104807235 -0.91992056 -0.8762515
C -0.99430746 -1.0426446 0.15416448
N -1.0856583 -0.24595782 1.1538398
H 1.4352622 1.8576621 0.16508313
H 1.4629947 0.18332501 -1.7137511
H -0.09989612 -1.5941113 -1.6226286
H -1.6599201 -1.9001238 0.078536026
