11

N 0.4619981 0.34101358 -2.926319
C 0.35847548 0.6320091 -1.8129698
C 0.20865566 0.96813434 -0.392726
C -0.5969051 -0.088481516 0.34199807
C 0.05881296 -1.1826195 1.0550373
O -0.47472963 -0.061877634 1.7491615
H -0.2821209 1.942652 -0.30529568
H 1.1983337 1.0585222 0.067560375
H -1.611401 -0.23634861 -0.028681938
H -0.4667643 -2.1247313 1.2064941
H 1.1456449 -1.2482725 1.0457408
