11

N 0.83043257 0.40272340 -0.93383204
C -0.12899955 -0.26627682 -1.53683315
C -1.03684048 -0.70125470 -0.40325212
C -0.46245342 -0.15725786 0.90278752
C 0.81771236 0.57588512 0.52764230
O -0.90524481 -0.26103908 2.01808498
H 0.77446568 1.62857730 0.82614805
H 1.58815458 0.80406794 -1.47545381
H -2.06310929 -0.34888029 -0.55964126
H -1.10526248 -1.79660503 -0.37343044
H 1.69114472 0.12006018 1.00777970
