12

O 0.02940761 -1.1964328 2.112691
C 0.027108997 -1.4974573 0.7464722
C -0.09561369 -0.2656054 -0.108465225
N -0.41965994 -0.33603328 -1.4520177
N 0.15622182 0.92900145 0.32077026
C -0.5744478 0.6381281 -2.1672428
N -0.11893235 1.9183999 -0.46762854
H -0.82179695 -2.1589072 0.54632854
H 0.030433286 1.6030622 -2.0488594
H 0.9368109 -2.0395205 0.44310465
H 0.49323344 -0.35773486 2.234749
H 0.3572347 2.7631 -0.15990204
