12

O -1.4710193 1.8161279 0.019582668
C 0.15751128 -2.672741 0.6383525
C -0.16007297 -0.18450092 0.07648973
N 1.9612242 -0.12845065 -0.7612631
N 0.79408187 0.48680538 -0.42014378
C -1.4992396 0.45202845 0.33444872
N -0.021698853 -1.536408 0.3889372
H 2.1655347 -0.98018885 -0.24262305
H -2.2528658 -0.086653434 -0.2590648
H -0.638091 1.9890543 -0.43909872
H -1.7603376 0.31332153 1.3919855
H 2.7249727 0.5316053 -0.7276031
