13

C 0.06357742 0.19473419 -0.22338626
C 0.7764122 1.4890233 -0.43359402
N -0.014327618 -0.6427026 -1.1732774
O -0.16568156 -1.4312906 1.5605023
C -0.5862824 -0.1764791 1.0970802
O -0.6416863 -1.8782529 -1.0414593
H 1.6334358 1.5572338 0.2460185
H -0.3580143 -2.0499218 0.8364299
H -0.30995694 0.5703274 1.8478997
H -1.6793857 -0.1262493 0.95938724
H 0.046089463 -1.4194059 -2.0048752
H 1.1265106 1.582117 -1.4639387
H 0.109309025 2.3308663 -0.20678654
