13

C 0.044663686 0.22421837 -0.03928956
C -0.72080994 -1.0597376 0.17258175
N 0.79924375 0.2864707 -1.0931622
O 0.9799813 -0.6155032 -1.9730467
C -0.048479468 1.3825451 0.89945376
O 0.073175125 -2.2031596 0.0064959344
H 0.33672634 1.1094694 1.8894256
H -1.5834645 -1.058963 -0.5155894
H 0.5206235 2.2446373 0.5380241
H 0.48785472 -2.091454 -0.86747867
H -1.0922825 1.6943347 1.0284897
H -1.1137487 -1.0717236 1.1941397
H 1.3165165 1.1588652 -1.2400445
