10

O -1.3980744 -0.39249015 -1.8006902
C -0.7289081 -0.22518535 -0.8259958
C 1.296402 0.90572375 -0.099132195
C 0.72461987 -0.4183239 -0.4685424
O 0.40513316 -0.12017963 0.9515186
C -0.99333596 0.18986578 0.61889344
H 2.301774 0.65614706 0.28852132
H -1.653214 -0.48139986 1.1752921
H -1.2099981 1.2409952 0.80736446
H 1.2556013 -1.355153 -0.64722955
