10

O 1.7512534 -1.131539 1.013131
C 0.8032581 -0.6123471 0.5021725
C 0.5072606 -0.08333644 -0.93050295
C -0.72149175 0.5833092 -0.30928248
O -1.5209922 -0.46721837 0.19693735
C -0.4733639 0.024765499 1.0328467
H 0.2922322 -0.8199215 -1.7075871
H 1.2940972 0.600095 -1.2597007
H -1.1960479 1.5237722 -0.5603946
H -0.7362059 0.38242057 2.0223799
