11

N -0.44287863 0.37641948 -2.7401636
C -1.7442617 -0.52301973 2.0557325
C 0.07519175 0.8992958 0.85417616
O 1.0472735 0.05949877 0.30606866
C 0.57303524 -0.8570217 -0.6501584
C 0.0027815413 -0.18096066 -1.8340234
N -0.93548214 0.15613572 1.540711
H -0.418741 1.5048788 0.08276019
H -0.18717137 -1.5252265 -0.22481848
H 1.436032 -1.4524866 -0.95374036
H 0.5942209 1.5424865 1.5634557
