11

N 0.51822305 -2.5062182 -0.09280298
C 0.6568882 1.0651199 0.024024364
C 0.4607846 -1.7197522 0.8103861
O 0.31067634 0.11532146 -0.96607894
C -0.425581 -0.94843733 -0.5456824
C -0.5312057 1.6592306 0.66377175
N -1.4801893 2.10414 1.1479347
H 1.2262557 1.8413763 -0.49027544
H -0.72280973 -1.5124469 -1.4224981
H -1.2895774 -0.6948177 0.0717186
H 1.2765353 0.5964834 0.7995023
