13

C -1.247289 -0.6592752 -0.06254756
C 0.6414294 0.38910702 0.49064732
O -0.96386087 -1.3369116 -1.3025863
C -0.6241049 0.7345628 -0.18442734
O 0.64380515 -0.11335817 1.7171113
N 1.8306572 0.55989385 -0.042145994
H 2.6505604 0.18211715 0.4087055
H -0.6659595 -2.2189934 -1.0500915
H -0.22576128 -0.59433216 1.6788051
H -1.1709296 1.4612837 0.4286168
H -0.45477307 1.14639 -1.1965393
H 1.926177 1.017866 -0.93599963
H -2.3399506 -0.56835 0.050451763
