9

O 1.05452142 0.34773707 1.92377992
C -0.58132051 0.87900802 0.09608572
N -0.96254589 -0.44203026 -1.91078536
N -0.46832879 -0.11591128 -0.82030820
N 0.57481242 -0.86131310 -0.07465037
C 0.42584601 0.13918316 0.78446274
H -0.51644978 -1.31924147 -2.18388373
H -1.20558271 1.75155676 0.12092146
H 1.67904777 -0.37898905 2.06437788
