9

O 0.4893336 0.52961886 2.1009336
C -0.19262496 1.0057056 -0.26697004
N -0.2123247 -0.1906456 -0.9078796
N 0.1875383 -0.9815834 0.28136387
N -0.44969094 -0.6401469 -2.0398471
C 0.19488914 0.21488275 0.85553616
H -0.3222342 -1.6520352 -1.9858025
H -0.4042596 1.9988316 -0.6142062
H 0.7093735 -0.2846277 2.5768714
