11

O 0.46068883 -1.0930362 -2.338044
C 0.8081337 -0.14823356 -1.6614232
C 0.26940522 0.10731488 -0.33459345
C 0.47342974 1.0723102 0.6241793
N -0.3110003 0.8369977 1.7153792
C -0.9867373 -0.25702125 1.4265691
N -0.67578703 -0.73722404 0.2038291
H 1.5605845 0.5820423 -2.0176222
H 1.1431338 1.9213067 0.58512354
H -1.7100326 -0.7347905 2.072555
H -1.0318185 -1.5496666 -0.2759523
