10

O -0.33023933 0.596641 -1.8543249
C 0.6593191 -0.4979184 1.4967159
C -0.7045607 -0.11395695 -0.6916929
C 0.054444235 0.3752801 0.5223213
N 1.4985645 -0.10035079 0.65133816
H 0.63572896 0.58724767 -1.8992729
H -0.54170406 -1.1968946 -0.8033142
H -1.7816427 0.050359283 -0.5745272
H -0.106193565 1.4238517 0.7724416
H 0.61628354 -1.124259 2.380315
