10

O 0.99989885 -1.2000657 -0.8473217
C 0.29560828 0.8063125 0.1157525
C -1.0918999 0.47578925 0.17795837
C 0.7819437 -0.651176 0.30032033
N -0.59967643 0.5653218 -1.0532031
H -2.0623248 0.47940874 0.653404
H -0.37587488 -0.97160137 0.71474063
H 0.78578717 1.7668731 0.22758842
H -0.12196175 -0.35185903 -1.4656473
H 1.3884997 -0.9190033 1.1764078
