11

O -2.2946076 -0.62066036 -0.42587617
C -1.1522819 -0.37299377 -0.16184515
C 0.11460714 -1.2132053 0.041779157
N 0.75671947 -0.050323892 0.72912264
C 0.8578573 0.97957236 -0.28425705
C -0.44289526 0.8110707 0.4140573
H -0.06137765 -2.0384698 0.73726285
H 0.65688384 -1.5762107 -0.83664805
H 0.9575267 0.6965435 -1.3305407
H 1.4552053 1.8348689 0.020237185
H -0.84763753 1.5498084 1.0967082
