9

O -2.5738494 0.67429245 0.29112923
C -1.6294311 0.09602822 0.76197505
C -0.29944167 0.045357347 0.09603969
N 0.76257604 -0.54814804 0.5439468
C 1.6591027 -0.27906856 -0.45456696
N 1.1828259 0.42617202 -1.4381909
O -0.1279858 0.6476103 -1.0743432
H -1.6596183 -0.44518217 1.7230242
H 2.6858218 -0.6170616 -0.44901386
