9

O -0.89986134 0.9436336 -1.7066445
C 1.3372372 -0.8244972 0.40374926
C -1.3261011 0.6651535 -0.6255435
N 1.3144468 0.44299945 0.6780512
C -0.9020571 -0.67031103 0.0493633
N 0.08657408 -1.3731939 0.07562093
O 0.19359787 1.0225847 0.72215927
H -2.042432 1.2097918 0.004988634
H 2.238595 -1.4161611 0.3982555
