9

O -0.57685532 -0.56634060 0.97597480
C -1.31416495 0.54609646 0.76359414
C 0.00131101 -0.44131370 -2.35629174
N 0.82206113 -0.36563043 1.00314632
C 1.32002058 -0.35777993 -0.16773447
N 0.60946147 -0.41488453 -1.34612657
O -0.89427471 1.62553144 0.47164210
H -2.36680861 0.26237991 0.90622782
H 2.39924957 -0.28805867 -0.25043237
