11

C 1.1025033 0.04858569 -0.9020008
C -0.18181387 -0.34104583 0.995776
O -0.07041899 -0.26259312 -1.3970711
C -1.1791817 0.47588396 0.4219692
O 1.0869844 -0.031254414 0.6905414
H 1.4402295 1.0868763 -1.0588622
H -0.35978892 -0.94004834 1.8908358
H -0.5621036 -0.97403455 0.03376038
H -0.9731074 1.4150679 -0.073772945
H -2.2205544 0.1787288 0.5103553
H 1.9172516 -0.6561663 -1.111531
