11

C 0.06426899 1.11024454 -0.64829181
C -0.60463455 -1.38640552 0.56864233
O 0.46042594 0.79727376 0.66320097
C -0.00286002 -0.37593339 1.19287988
O 0.66692846 0.31665107 -1.62169628
H -0.75802738 -1.42128214 -0.50276746
H -1.01541216 0.96408229 -0.75295355
H -0.93930826 -2.22971484 1.16212231
H 1.62387988 0.43823409 -1.55987994
H 0.18290144 -0.38334584 2.26430491
H 0.32183757 2.17019640 -0.76556141
