11

C 0.50986534 -0.96301186 1.501787
C 0.16331866 -0.12546207 0.31975564
N 0.6339009 1.0335671 -0.0088365525
C -0.032185744 1.359164 -1.1826768
C -0.87906003 0.36111063 -1.5004725
O -0.7636105 -0.6044748 -0.54207575
H -0.38410074 -1.1987323 2.0874107
H 1.2141721 -0.41621265 2.1289706
H 0.96693575 -1.9093214 1.1946353
H 0.15402585 2.2886512 -1.7027422
H -1.5832615 0.17472225 -2.2957551
