11

C -0.13805053 -0.64811796 0.15530372
C 0.80246186 0.83886194 -1.2070307
N -0.17530726 0.6147603 0.75013304
C -0.6146856 -1.8136562 0.59484386
C 0.3581544 1.537146 -0.16538985
O 0.53419477 -0.50027525 -1.0365604
H -0.90230477 0.84950936 1.4070423
H 0.41244078 2.5923574 0.052402053
H -1.1100297 -1.8719932 1.556057
H 1.3291681 1.1105783 -2.1072025
H -0.49604216 -2.7091706 0.0004012138
