11

C -0.54099697 0.1816901 -0.09835475
C -1.4216348 0.70256233 -1.1199262
N 0.7097397 0.2636403 -0.49429682
C 1.5152769 -0.3656856 0.44715312
C 0.68396914 -0.7373078 1.4439163
O -0.61087185 -0.39506727 1.1111122
H -1.7300222 -0.09317355 -1.8036295
H 0.2612765 0.81357044 -1.47277
H 2.5866792 -0.45504472 0.35787573
H 0.82493377 -1.1987218 2.4086092
H -2.2783494 1.2835376 -0.77968925
