11

C 0.28778787 -1.42862427 1.37740240
C 0.08859177 -0.54394949 0.39938023
N 0.57835765 0.75590086 0.25588828
C -0.01518646 1.31516882 -0.88800141
C -0.73058793 0.35320712 -1.46493801
O -0.67406981 -0.80088800 -0.71715065
H 0.92282577 -1.17772740 2.21792445
H 0.83176509 1.29932573 1.06560203
H -0.17189974 -2.40623627 1.32896233
H 0.18349693 2.32949700 -1.19705590
H -1.30108105 0.30432599 -2.37801344
