9

N -0.01013776 -0.74417580 1.17841083
C 0.66146173 0.26914969 0.76497236
C 0.24553519 0.66108424 -0.62012940
N -0.79216071 -0.30068309 -0.94935221
C -0.87742319 -1.04170663 0.08881177
H -1.56852515 -1.87396491 0.17637667
H 1.42253056 0.74848007 1.37262751
H -0.15096744 1.68178177 -0.67081706
H 1.06968687 0.60003461 -1.34090077
