11

O -1.4738895 1.6304287 1.2679754
C -0.75170213 0.84175587 0.69218713
N -0.75842977 0.5590003 -0.65369433
C 0.22465537 -0.4270827 -1.0346545
C 0.8749146 -0.7445297 0.2896385
C 0.3219986 -0.02529436 1.2643609
H -1.3963896 1.0092111 -1.2862669
H 0.95138615 -0.03141758 -1.7554283
H -0.23287013 -1.3192619 -1.4798553
H 1.676055 -1.4691681 0.37700292
H 0.56427133 -0.02364142 2.3187346
