11

O 2.02231844 0.18259327 0.64080882
C -1.56139147 -0.22127279 0.47035155
N 0.36544652 0.12794316 -0.92486310
C -1.10285356 -0.05064321 -0.95277916
C 0.72858975 0.06097016 0.34576633
C -0.37859186 -0.13930710 1.19478903
H -1.58181706 0.82310050 -1.40785748
H 1.01169496 0.24859114 -1.68913706
H -1.35972643 -0.93144144 -1.55130131
H 2.12801434 0.11371636 1.59954196
H -0.27168369 -0.21424985 2.27468055
