11

O -0.2809112 1.6433364 2.1662507
C -0.2164978 0.86748165 1.2351632
C 0.7531522 1.0185947 0.1348878
C 0.7819478 0.13445863 -0.87256294
N -0.101481445 -0.9217798 -0.876818
C -0.99368083 -1.0435691 0.15405948
N -1.0867932 -0.24577945 1.1514058
H 1.4346681 1.8597983 0.16360621
H 1.4667987 0.18540311 -1.7130951
H -0.09854668 -1.595044 -1.6230485
H -1.6586555 -1.9029003 0.080151334
