11

O 1.5093396 -1.4667296 1.4183176
C -0.58566135 -0.4147215 0.9508042
C 0.75654006 0.6353538 -1.3752658
C -1.2091165 0.38481045 0.073209494
N -0.5362693 0.8740648 -1.036326
C 0.81158733 -0.76201934 0.7187698
N 1.3322631 -0.1789518 -0.45854807
H -2.2476828 0.68622553 0.17221776
H -1.0505993 1.4719986 -1.6660883
H 2.3014617 -0.4169534 -0.6231378
H -1.0818621 -0.8130775 1.8260473
