9

O -0.13608249 1.70769 -1.7461123
C -0.13618948 0.96467537 -0.81687886
N 0.38168526 -0.26162907 -0.6101669
C 0.07987982 -0.7469322 0.7110329
C -0.7152839 0.37394032 1.3550749
O -0.79122967 1.3022083 0.43301597
H -0.52926236 -1.658701 0.7044808
H 0.87348753 -0.7379599 -1.3459542
H 0.9729953 -0.9432917 1.3155075
