9

O 1.68511438 0.39462720 -1.72866726
C 0.84096742 0.33623877 -0.89227486
N 0.35239307 -0.66607882 -0.13636401
C -0.70127261 -0.20851423 0.73115996
C -0.82031514 1.27514497 0.43448691
O 0.08298374 1.50513029 -0.48681639
H 0.70021673 -1.60274515 -0.24507639
H -1.66449130 -0.69160820 0.52806041
H -0.47559651 -0.34219480 1.79549152
