15

N 1.1030613 0.3238919 0.018521098
C 0.000975854 0.17883469 -0.9130703
O -1.1690648 -0.07197953 -0.11966327
N 0.33154756 -0.8594147 -1.8355348
C -0.833176 -0.024540156 1.2672825
C 0.67033595 -0.2864609 1.2792017
O -0.24226587 1.2974045 -1.6949624
H -0.4411067 -0.99520695 -2.476865
H 0.5154834 -1.7159774 -1.3283128
H -1.0672762 0.96639407 1.6836632
H -1.4226974 -0.7773749 1.7982794
H -0.82635415 1.8768743 -1.1889776
H 1.3146737 1.3118594 0.11529901
H 1.1922941 0.13887216 2.141432
H 0.87356937 -1.3631766 1.2537076
