12

N 0.86706689 -1.56751652 0.53314571
C 0.20126757 -0.42123048 0.13112819
C 1.03093082 0.47064864 -0.73414204
N 0.80812024 1.63715432 -1.16305990
C -2.55282933 1.72238332 -0.33738014
N -1.83930744 0.84687758 -0.01022121
C -1.08486507 -0.21839743 0.45710419
H 1.86561052 -1.47565373 0.63412603
H 0.44309159 -2.09415427 1.28263612
H 1.97956642 0.00431465 -1.02747245
H -0.08993008 1.99967293 -0.86628015
H -1.62872181 -0.90409912 1.10041609
