10

O 0.03080001 -2.5486202 0.5192677
C -0.24343483 -1.9914104 -0.5091638
O -0.23197076 -0.66766983 -0.69817615
C 0.13927303 0.0963093 0.46126515
C 0.10623822 1.5119382 0.10825022
C 0.08836454 2.6873608 -0.13927706
H -0.5393473 -2.49113 -1.4428338
H -0.5589095 -0.12123891 1.276185
H 1.1392404 -0.2064316 0.78952205
H 0.069746144 3.7308931 -0.36503932
