11

O -0.31611948 0.29558380 -2.19209316
C 1.12477029 0.37381154 0.99304023
C 0.07973732 0.85404122 0.08211528
O -0.22956457 0.46399681 1.41179662
C -0.42903360 -0.03394686 -1.02762907
N -0.96287446 -1.20364048 -0.59098820
H 1.80280569 1.09182016 1.45164165
H 1.50049374 -0.64157407 0.87807610
H -1.17466313 -1.30948985 0.38875351
H 0.00481868 1.91954558 -0.12651784
H -1.40037045 -1.81014790 -1.26819498
