11

N -0.44598615 -0.8724457 -0.25182778
C -0.5683809 -0.66520125 -1.523121
C 0.20481999 0.22968517 0.33317152
C 0.2761583 -0.096078984 1.7568654
C 0.47583464 1.0632508 -0.6931557
O -0.03130043 0.49601808 -1.8777332
H 1.1864753 0.22403502 2.2654505
H -0.9983625 -1.294768 -2.287559
H 0.9555372 2.017096 -0.8117086
H -0.44147137 -1.3778268 0.8108895
H -0.6133242 0.2762354 2.2787287
