11

N -0.60372805 -1.05084788 0.52331686
C 1.05793130 -0.07267652 -0.59314382
C -0.85679721 1.43829219 0.24278669
C -0.11393908 0.16077516 0.03561538
C 0.28400298 -1.91442009 0.16754233
O 1.32526663 -1.41112369 -0.51336244
H 1.78173355 0.53684073 -1.11274580
H -0.33218856 2.27933889 -0.21881237
H -0.97440363 1.64373985 1.31076195
H -1.85856753 1.37089309 -0.19191352
H 0.29068921 -2.98081139 0.34995503
