10

C -1.36045308 0.14001734 0.15928711
C 0.31657902 -0.62468502 -0.90154105
N 0.79461420 -0.81458089 0.49585696
C 0.99603531 0.46255280 -0.16600979
C -0.06242547 0.35378995 0.87592908
N -1.13621756 -0.46499969 -0.93774338
H -2.34748732 0.43720734 0.49692488
H 0.79983504 -1.21466165 -1.67353049
H 1.94236009 0.98243208 -0.22841224
H 0.05716011 0.74292741 1.87923901
