10

C -0.42316788 1.2261571 0.07517588
C -0.91232723 -0.74885935 -0.5471671
N -1.4093833 0.42662314 -0.4144623
C 0.6506028 0.535645 0.6297712
C 0.58082324 -0.90253145 -0.22119252
N 0.6919253 -0.85614806 1.096626
H 1.5427073 1.0762225 0.9448365
H 1.2751179 -1.4209396 -0.89498776
H -1.5296572 -1.6394864 -0.62983847
H -0.46664068 2.3033168 -0.038761463
