9

N 1.0226116 -1.4403827 0.28549388
C 0.7666755 -0.1671657 0.4297851
C -0.43098179 0.40971348 -0.16571422
N 1.2473334 -2.5406547 0.16305155
N -0.81326723 1.6194705 -0.10986197
O -1.1745867 -0.4963728 -0.83976364
H -1.9301103 0.0065394687 -1.1799741
H 1.483507 0.40574285 0.9979909
H -0.17118168 2.2031097 0.41899234
