11

N 0.56615685 -2.01398673 0.35442451
C -0.26342514 1.20544732 -0.12382610
C 1.02869435 0.40610242 -0.31130984
C -1.04224561 0.00317755 0.20959152
C 0.20774678 -0.83070041 0.08526594
O -1.19855779 0.67774735 -1.04382020
H -0.39935880 2.22519900 0.21644092
H 1.80533112 0.61692758 0.42935065
H -1.92720488 -0.14024983 0.81836390
H -0.22629692 -2.56801635 0.68503066
H 1.44916028 0.41835233 -1.31951232
