11

N 0.71442604 -0.81152874 1.8257353
C -0.4233286 0.57228273 -1.015438
C -0.9190895 -0.5116939 -0.15381335
C 0.86891407 0.7222194 -0.20840451
C 0.3116936 -0.37896678 0.7069112
O -0.45115006 -0.7615466 -1.483898
H -0.9828066 1.3198746 -1.5652051
H 1.7914263 0.49686733 -0.74840593
H -1.9223148 -0.8359944 0.09657896
H 0.96221036 1.6704271 0.32861304
H 0.05001899 -1.4819406 2.2173262
