11

N 1.0370146 0.13363136 1.7700326
C 0.37333038 0.05916371 0.54017526
C -0.9703491 0.12738167 0.27215546
N -1.0535654 0.061837077 -1.1114063
C 0.2088302 -0.028053453 -1.5865654
N 1.0965117 -0.039565027 -0.61945456
H 2.0074387 -0.12227979 1.6460111
H 0.6159894 -0.43080753 2.4950676
H -1.8446356 0.23390679 0.895158
H -1.8986964 0.08747584 -1.657064
H 0.42813143 -0.08269054 -2.6441095
