11

N -1.4848163 -0.069235146 0.8381622
C -0.2509646 -0.29110456 1.5828426
C -1.1003683 0.17325963 -0.3549606
N 1.0988488 0.38795897 -1.58576
C 0.3809432 0.11350907 -0.44838387
N 0.8886933 -0.173813 0.69639283
H -1.7897319 0.39847806 -1.1646338
H 2.0730565 0.1290279 -1.5350858
H 0.6595497 0.17228985 -2.4685571
H -0.28605595 -1.2837218 2.0456848
H -0.18915415 0.44335088 2.394299
