10

N -0.5127564 -1.2174724 -0.9647199
C -0.28477094 -0.020308835 -0.3569729
C 0.63413495 1.6687903 1.0129738
O -0.23089583 2.1058521 0.16115499
C 0.70046717 0.17993492 0.7589032
N -0.8423009 1.0718118 -0.72386414
H -0.33787352 -2.0544066 -0.43670163
H -1.2972987 -1.2596728 -1.5994291
H 0.4492041 -0.37202418 1.671006
H 1.72209 -0.10250459 0.47764972
