10

N -0.5664395 1.1637487 -1.2870907
C -0.15633546 0.24927461 -0.3245129
C 0.68569523 -0.8128739 -0.3956328
O 0.69195724 -1.411165 0.84477794
C -0.1472908 -0.67208374 1.5760746
N -0.6830937 0.3241239 0.9551887
H 0.1440864 1.4152226 -1.9591756
H -0.9768385 1.9829783 -0.8613271
H 1.304517 -1.2667364 -1.1530044
H -0.29625782 -0.97248924 2.6047022
