11

N 0.2919483 0.30343467 1.9990828
C 0.112819925 0.10426515 0.76411283
C -0.6356846 0.84576213 -0.34230092
N -0.42590135 0.083269686 -1.5742537
C 0.2934562 -0.9156782 -1.2453761
N 0.6483769 -0.99218625 0.08871194
H -0.17250791 1.1584443 2.3012776
H -1.7073599 0.9140173 -0.120945446
H -0.25949153 1.8683629 -0.46157172
H 0.6271471 -1.6821997 -1.9383605
H 1.2271972 -1.6874921 0.52962345
