11

N -0.41314295 -0.55514395 -1.4609095
C 0.19871172 -1.2963809 -0.64101547
O 0.7724689 -0.8165368 0.4754819
C 0.6955866 0.5952077 0.62959784
C -0.73148316 1.0823237 0.8000927
O -1.0308332 2.2438667 0.7100761
H -0.78509563 -1.0999732 -2.2325695
H 0.34512356 -2.3782825 -0.68994594
H 1.1574403 1.1175089 -0.21294683
H 1.2540671 0.8116623 1.5456152
H -1.4628431 0.29574835 1.0765233
