11

N 0.3926047 -1.5065565 -0.42251116
C 0.84756386 1.2549665 -0.2172916
O -1.2014885 -0.001149078 0.21077032
C -0.14620636 0.7444404 0.8085191
C -0.8189951 -1.1489446 -0.37285253
O 1.934721 1.671498 0.085537106
H -0.6374621 1.6032157 1.2770213
H 0.48425514 -2.391628 -0.91030556
H 0.3797288 0.15790679 1.5670079
H 0.46185526 1.2826488 -1.2576466
H -1.6965766 -1.6663977 -0.76824826
