11

N -0.7162278 0.13213736 -0.8420541
C -0.6983332 1.2550168 -0.16686153
O -0.04543323 1.3619576 0.9104411
C 0.950755 -0.25551704 0.7295205
C -0.0037482867 -1.0100713 -0.08387768
O 0.8996242 -1.7569916 -0.66353106
H -1.2331692 0.012502661 -1.7000384
H 1.1958195 -0.5859016 1.7357271
H -0.82869565 -1.5131397 0.4586777
H 1.728315 0.23112659 0.16037478
H -1.2489063 2.1288805 -0.5383783
