11

N 0.9296089 0.67878497 2.7729788
C -0.43490502 -1.0152452 -0.7442074
C -0.69626683 0.45341623 -0.38551897
C 0.8652747 0.5645042 1.6258316
C 0.7447117 0.41433296 0.1656885
O 0.91912144 -0.93774813 -0.2546933
H -1.4760228 0.6357505 0.35501456
H -1.022336 -1.7493219 -0.1804707
H -0.8211326 1.1285448 -1.2332379
H 1.4597075 1.0913291 -0.3139039
H -0.4677609 -1.2643478 -1.8074815
