11

N 0.23398243 2.016821 1.583704
C 0.76681685 -0.49463367 0.69823563
C -0.86589855 0.5109222 -0.12674454
C 0.026111314 1.0813792 0.87277913
C -0.2173805 -0.28106874 -1.2223537
O 1.0459015 -0.59298736 -0.6566849
H 0.14715637 -1.3203769 1.0759226
H 1.6747507 -0.37746242 1.2940276
H -0.77887446 -1.2123089 -1.3962058
H -0.09324036 0.22256374 -2.1868863
H -1.9393253 0.44715196 0.06420651
