11

C 1.86362074 0.91757380 0.97053526
C 0.87491796 0.00270310 0.86030553
C 0.45173154 -0.21545436 -0.47998127
C -0.85075172 -0.82877975 -0.63238352
O -0.84727426 -2.02946534 -0.39838053
N -1.93030730 -0.13287618 -1.09365590
H 0.36781534 -0.40606779 1.73492651
H -2.69546651 -0.68491262 -1.45007419
H 2.17868840 1.32233383 1.92809698
H 2.35661682 1.28493176 0.07345108
H -1.76959095 0.77001371 -1.51283860
