11

C -0.20713146 -1.35338 -0.27933994
C 0.9182665 2.1748528 0.38676226
C 0.07802368 -0.023246858 -0.8106918
C 0.6352495 0.9471015 -0.15906629
O 0.6562367 -2.1020997 0.14334802
N -1.542557 -1.7008871 -0.30815318
H -2.1409967 -1.2245585 -0.9614199
H 1.9462469 2.448408 0.6095733
H 0.13523538 2.8462508 0.7306504
H -1.726663 -2.6817203 -0.14918423
H 1.2480897 0.66927874 0.7975214
