11

C 0.012717777 -0.5608731 -0.4075828
C -1.2955906 -0.32367125 0.16506158
C 1.1167367 -0.25971788 0.43710405
C 2.278847 -0.096650936 -0.23340398
O -1.630337 -1.180789 0.9711071
N -2.0937433 0.70233554 -0.25057837
H 2.3288937 -0.3517645 -1.2894198
H -3.0745368 0.61939526 -0.03055139
H -1.8438885 1.1842016 -1.1003617
H 3.172509 0.30210698 0.23817116
H 1.0283923 -0.03457286 1.5004542
