11

C 0.59424305 0.73439807 2.24098
C 0.30442172 0.16579336 0.92748743
C 0.07447617 -0.31569618 -0.15230747
C -0.14435723 -0.9700021 -1.4397243
O 0.3284308 -2.0542958 -1.7116319
N -0.9368696 -0.2622407 -2.2966192
H 0.45803052 -0.019749288 3.0223558
H -0.062443376 1.5795355 2.460925
H 1.6304883 1.081896 2.2837915
H -1.03804 -0.62525195 -3.2324226
H -1.2083805 0.6856133 -2.1028333
