11

C 0.81280893 0.37502635 0.28033054
C -0.7967933 -1.2242757 -0.92705905
C -0.56298226 -0.2682873 0.21430178
C -1.37532 -0.0011069911 1.19952
O 1.7787596 -0.18109918 -0.19875397
N 0.8597391 1.5818586 0.89643294
H -0.8450329 -0.67601466 -1.8740363
H 0.025829466 2.0572088 1.19794
H 0.06049544 -1.9030613 -0.9768782
H -1.7168992 -1.7937886 -0.7945081
H 1.759395 2.03354 0.9827105
