11

C -0.17438824 0.3619344 1.7091986
C 0.8574592 1.3685253 -0.60063815
C 0.212337 0.67187464 0.5362728
C -0.040538043 -0.94923896 0.3304712
O 0.9279766 -1.616131 0.056075625
N -1.3284268 -1.3319585 0.10847954
H -2.061831 -0.85035616 0.60378796
H 1.0026864 2.4186754 -0.334108
H 0.24178845 1.3189428 -1.5029918
H -1.4698733 -2.3089235 -0.09997506
H 1.8328094 0.91665566 -0.8065727
