11

N 0.45348436 1.3166809 -1.2376533
C -0.29500008 -0.16471393 0.37853336
C -0.54565096 0.5903669 -0.90782946
N -0.6140196 -1.5825789 0.3473899
N 1.4321754 1.008941 -0.2381245
C 1.1554061 0.14365481 0.7013789
H -0.013110421 -2.0623772 1.0061883
H -1.5727963 -1.7464894 0.6307777
H -0.8481703 0.39162982 1.1613878
H -1.4597921 0.6067033 -1.4909496
H 2.307474 1.498183 -0.35109913
