11

N -2.0014212 -0.52020425 -1.9169303
C -1.5778879 0.027391717 -0.991311
C -0.99808365 0.69678646 0.19232076
O -0.3149 -0.20690344 1.027595
C 0.80552095 -0.8227713 0.43699977
C 1.8565236 0.15331182 0.08448734
N 2.6508837 0.9456554 -0.19587097
H -1.800259 1.1214986 0.79783535
H -0.3428326 1.509272 -0.14788736
H 1.1932429 -1.5201141 1.1794564
H 0.5292136 -1.3839229 -0.46669474
