10

N -0.43308648 -1.4866616 -0.626344
C -0.5552309 0.7780855 0.4327164
C 0.8862272 0.35723877 0.43585324
C -0.03866506 -0.13949187 -0.6389282
C -0.7655823 -2.609304 -0.60309416
H -1.2099497 0.33900017 1.178671
H 1.6462518 1.0755466 0.14262049
H 0.07946249 0.25690615 -1.6438859
H 1.1984434 -0.36389 1.1845738
H -0.8078703 1.7925701 0.13781717
