10

N -0.72000123 -0.33521893 -1.46944200
C 0.87858151 -0.34894184 0.45751545
C 0.01622610 0.39446014 -0.52280022
C -0.38358096 0.31800123 0.92340827
C -1.33896047 -0.95159657 -2.24943434
H 0.37618371 1.34459179 -0.90842419
H -1.23001194 -0.31732955 1.16384597
H -0.31301509 1.23171690 1.50660238
H 0.87878966 -1.43198510 0.38606351
H 1.83578869 0.09630180 0.71266539
