10

N -1.5136684 0.9220792 -1.1035038
C 0.8893219 0.32054296 -0.30006692
C -2.0000923 0.21959014 -0.26230818
C 0.3200369 -0.24126826 0.9589913
C -0.45330676 -0.37639984 -0.32088956
H 0.729908 -1.1573298 1.3715857
H 0.9020898 1.3962377 -0.42216372
H -0.50556993 -1.3358127 -0.821505
H -0.072262466 0.45737702 1.6915344
H 1.7035435 -0.20501654 -0.79167414
