12

N -1.6877686 0.6652124 -1.158446
C 1.0242938 -0.04925188 0.9733545
C -0.5672851 0.09814019 -0.52976996
N -0.058519866 0.68468946 0.62660396
C 0.2599635 -0.95535636 -0.78724086
O 1.727546 0.28393587 2.0696166
N 1.2675886 -1.0364246 0.16546477
H -2.563325 0.30733556 -0.7894198
H -0.37580672 1.5384238 1.0523837
H 0.19420992 -1.66889 -1.5967164
H 2.4451802 -0.36084872 2.1293242
H -1.666077 0.4930343 -2.1551547
