12

N 0.1714692 0.9707506 0.4334633
C -0.0011885975 0.18086778 1.5137976
C 0.05113539 0.14369038 -0.703378
N -0.2297479 -1.0677707 1.1447761
C -0.20179191 -1.1159054 -0.24527338
O -0.007687804 0.27459517 2.7962914
N 0.21658596 0.7158155 -1.9768584
H -0.6587972 0.8125774 -2.477421
H 0.8742217 0.20274179 -2.5479977
H -0.36894 -2.020585 -0.8078192
H -0.24351425 -1.0479741 2.45576
H 0.3982554 1.9511968 0.41465938
