11

O 2.3346865 0.9812022 -0.21306387
C 0.9626911 -0.92579937 0.42474097
C -0.7193491 0.76091594 -1.3248106
C 1.2744204 0.4697957 0.022000106
N -0.9771497 0.17674045 0.11468666
C -0.35714984 -1.0611929 0.47155732
N 0.028999403 1.1700269 -0.07702843
H -0.98811066 -1.9084803 0.6979106
H -1.7491739 0.5032523 0.68934
H 1.7125425 -1.6857687 0.5918062
H -1.5224067 1.5193076 -1.397139
