10

C 2.68415917 0.64110733 0.11018277
C -0.94604912 0.58414106 0.57372340
C 0.15199485 -0.04073136 -0.04925376
C 1.53499906 0.31103090 0.02421671
N -1.59341582 -1.02789926 -0.55508382
N -2.04700779 -0.06909384 0.23193034
N -0.29771448 -1.07226421 -0.76692364
H -0.97620263 1.44323888 1.22555057
H -2.22111520 -1.69613695 -0.97302325
H 3.71035207 0.92660738 0.17868125
