10

C 2.3745863 -1.2495618 -0.6540674
C -0.55412716 0.94513136 -0.6042004
C 0.10892909 -0.11635665 0.042225372
C 1.3401519 -0.7464077 -0.31688645
N -0.6117445 -0.48313412 1.104041
N -1.6650914 1.2132126 0.06627646
N -1.6357261 0.33830994 1.0552799
H 3.2944732 -1.7057459 -0.94557786
H -2.3721004 0.307383 1.7423155
H -0.2793514 1.4971695 -1.4894061
