11

O 2.1581714 -1.4082348 -0.5371877
C 1.1417197 -0.7964111 -0.35739264
C -1.0771096 -0.28255588 -0.38893083
N 1.0011541 0.48726594 0.1257807
C -0.36983517 0.7331077 0.5196962
O -0.099612646 -1.2941239 -0.6249479
H 1.7791433 0.8581787 0.6484837
H -1.3563755 0.16594122 -1.3473595
H -0.6833684 1.7584988 0.30909455
H -0.5391726 0.51907945 1.5825533
H -1.9547147 -0.74074596 0.070210315
