11

O 1.3634044 1.1994157 -0.4259528
C 0.69638383 0.214035 0.31093186
C -0.79540616 0.5249635 0.5872894
N -1.1130717 -0.71281064 -0.12630688
C 0.16864012 -0.9726991 -0.5242386
O 0.6704406 -1.7695452 -1.2787217
H 1.975761 0.7503945 -1.0240036
H 1.2527649 -0.09534546 1.2058861
H -1.0998328 0.52705115 1.6362789
H -1.1270187 1.4335648 0.080431804
H -1.9920655 -1.0990245 -0.44159454
