10

C -1.1613878 0.061052598 -0.57158184
C 0.3477603 0.18708712 -0.50998586
O 1.0002654 0.53785396 -1.464238
C 0.9917826 -0.15190059 0.82019347
H -1.5047053 0.17061125 -1.6019198
H -1.4889526 -0.90149164 -0.16474953
H -1.6158737 0.84573555 0.04492588
H 0.91769016 -1.2314814 0.9921175
H 2.0442023 0.1376309 0.8107761
H 0.46921855 0.34490216 1.6444621
