9

O 0.05959593 -0.40970299 -1.75347221
C 0.23857937 -1.06125168 0.60656139
N 0.14140092 -0.35944789 1.76971614
N -0.10546728 0.87972997 1.52264906
N -0.16739120 1.00415676 0.17342404
C 0.03915036 -0.18484516 -0.42927014
H 0.43617584 -2.12108056 0.57775163
H -0.30759206 0.33653487 -2.24370327
H -0.33445196 1.91590699 -0.22365634
