10

N 0.8068074 -0.15867695 1.6791172
C -0.3785199 0.13908799 1.3641206
O -0.79205126 0.20733845 0.09136117
C 0.21355519 -0.086897016 -0.87262225
C -0.3879393 0.04035735 -2.202401
N -0.8160986 0.12829982 -3.2730978
H 0.919837 -0.15371351 2.6903245
H -1.2147919 0.37805262 2.0267248
H 0.5956562 -1.1019686 -0.72962725
H 1.0535452 0.60811985 -0.7739004
