17

C -0.56747895 2.43213052 -0.36890459
N 0.51012891 1.41755805 -0.82518156
C 0.54654691 -0.28330088 1.40914350
O -0.27032423 -0.33597649 -2.12073214
N 0.04373749 -0.73400010 0.11732262
C -0.44291331 -2.10243743 0.02518918
C 0.07061619 0.00666939 -1.01002130
H 0.34054837 0.77941302 1.56129070
H -0.95422346 1.98586922 0.56343025
H -1.34804429 2.27001238 -1.12833294
H -1.26181707 -2.25246426 0.73713302
H 0.36116162 -2.81256046 0.25355381
H 0.02201057 -0.83738037 2.19235402
H 1.62392689 -0.46775876 1.51756582
H 0.82397724 1.72449027 -1.74639707
H 1.30805963 1.48990432 -0.19137125
H -0.80591250 -2.28016849 -0.98604222
