17

C -1.1698344 1.9095967 0.09972859
N -0.48263642 0.6550335 0.3691615
C 0.72057503 0.42113563 -0.22891115
O 1.3146343 1.2231889 -0.91576964
N 1.2735975 -0.87214303 -0.009561085
C -1.2238009 -0.33703828 1.137078
C 1.8838712 -1.7725599 -1.4053035
H 1.1514279 -2.5781493 -1.4540176
H -1.3686473 2.4369156 1.0391266
H -2.1216307 1.7339102 -0.41593435
H -1.9579906 0.1887368 1.7543559
H 0.80221665 -1.5052553 0.6216327
H 1.694013 -1.022654 -2.1784284
H -0.5250426 2.522344 -0.5305819
H -0.57510096 -0.89685756 1.8229445
H 2.3364565 -1.060373 -0.19335645
H -1.7521085 -1.0458306 0.4878362
