17

C 0.06449257 -0.54240865 1.4374602
N 0.88845384 1.4145385 -0.40044665
C -0.15617965 2.5177474 -0.09968816
O 0.34123975 -0.016334418 -2.1369953
N -0.07550146 -0.7407653 0.00016948886
C 0.37001643 0.124479316 -0.93421996
C -0.661627 -1.9937428 -0.45198375
H -0.8515109 2.0217636 0.5992276
H -0.6865813 2.5773158 -1.0627155
H 1.4629079 1.2803687 0.43360606
H -0.7227019 -1.9822826 -1.5392207
H -0.72878927 -1.1035336 1.9388621
H -1.6674755 -2.1041906 -0.03240595
H 1.0324045 -0.9045342 1.8096689
H -0.05778828 0.5111894 1.7018908
H 1.4958472 1.783964 -1.1325288
H -0.047207173 -2.8435748 -0.13068098
