11

O 0.6748798 -2.0994222 -0.56168526
C -0.9273341 0.895057 0.98891366
C 0.64635897 -0.8372244 -0.105886206
N -0.36016592 1.1881974 -0.18219376
C 0.13635522 0.15118454 -0.99930704
O 0.09544789 0.110515215 -2.2235117
H 1.1874648 -0.5583351 0.7889904
H -1.5119519 -0.004496041 1.1012745
H -0.9347099 1.6490701 1.7684015
H 1.2828473 -2.6359181 -0.05118111
H -0.2891922 2.141372 -0.5238154
