9

O 0.8353354 -1.7228496 -0.622158
C 0.27412522 -0.5733595 -0.21559083
N -0.65902096 0.06887054 -0.8984027
N -0.90630895 1.1233363 -0.12429975
N -0.21580751 1.213503 0.99060076
C 0.5608916 0.13227679 0.9666368
H 0.44321242 -1.9660774 -1.4699378
H -1.5927166 1.8150461 -0.38369456
H 1.2602893 -0.09074621 1.756846
