12

C 0.20352158 0.070918106 -0.016635818
N -0.3362144 1.2063935 0.08268177
C 0.53434706 2.3639162 0.08415886
N -0.5826497 -1.0852729 -0.01509747
C -0.028617568 -2.3019753 -0.11856427
O -1.0495887 -3.1843388 -0.08501701
H 0.3777228 2.9199111 1.0147145
H 1.604909 2.1229517 -0.009724977
H 0.24763045 3.0286329 -0.7363762
H -1.5894058 -0.9419381 0.07148646
H 1.271025 -0.14103165 -0.11015553
H -0.6526797 -4.058167 -0.16147023
