12

C -1.1213491 -1.013888 -1.699192
N -0.9996911 -0.58724916 -0.31925476
C 0.057033755 0.021149162 0.0081570335
N 0.24403799 0.4709411 1.3100969
C 1.3513503 1.1496924 1.7463722
O 1.5032192 1.5394078 2.879244
H -1.9970667 -0.5336541 -2.1470032
H -0.2413025 -0.7885288 -2.3199892
H -1.2995571 -2.0943208 -1.7255254
H 0.89450127 0.24680178 -0.66435903
H -0.49073645 0.2849548 1.9846125
H 2.0995605 1.3046939 0.9468407
