12

C -0.74164584 -1.89138108 -1.08931433
N -0.88204740 -0.68641790 -0.51802382
C 0.21370278 -0.01269680 0.02995127
N 0.06119312 1.11959057 0.56394510
C 1.23426238 1.76066376 1.12132461
O -1.97218099 -2.25450813 -1.50883168
H -1.78082651 -0.20743938 -0.45187863
H 1.37055132 2.73561208 0.64358664
H -1.87177386 -3.11873161 -1.92113468
H 1.14776796 -0.57064244 -0.06726545
H 1.05913009 1.94881187 2.18599557
H 2.16186703 1.17713914 1.01164513
