12

C 0.64734644 2.0558965 0.954649
N 0.8794379 0.9024221 0.31627506
C -0.9236303 -2.0023828 -0.87961805
N 0.16770914 -1.0901583 -0.5940464
C -0.11975329 -0.022784175 0.008789366
O 1.6733195 2.833902 1.1877551
H 0.54248667 3.1268084 1.5331646
H -1.1186695 0.2869412 0.3387958
H -0.6985628 -2.971693 -0.42429957
H -0.9848821 -2.1523454 -1.9613549
H 1.83599 0.6883468 0.031672865
H -1.9007915 -1.6549524 -0.511783
