9

N 0.67771584 -1.4245664 0.4844391
C -0.0034819057 0.0011652862 -0.9503537
C -0.15068805 0.64112943 0.35949364
N 0.39975372 -1.2138174 -0.82556903
N -0.4913353 1.7852919 0.77885205
O 0.17816266 -0.35172066 1.2427307
H -0.19481951 0.4489501 -1.9147807
H 0.272752 -2.2910793 0.8276979
H -0.68805945 2.4046469 -0.0025101348
