9

N -0.8846292 -0.57567 -1.226159
C 0.23721436 -0.14822175 -0.5567492
C -0.053483725 0.3717576 0.7902195
N 0.95161176 0.804224 1.487139
N 1.8355254 1.1708357 2.0868385
O 1.350906 -0.15983406 -1.0443778
H -0.700435 -1.0907754 -2.0737677
H -1.7057623 -0.8416127 -0.7054901
H -1.0309474 0.4692964 1.2423468
