11

N -1.5699083 0.23689005 1.682596
C 1.2937618 -0.15862249 -1.257946
C 1.5924861 0.121274166 0.014784425
N -0.13865131 -0.30808467 -1.4730349
C -1.0512584 -0.20112923 -0.58904433
C -0.675993 0.11677639 0.79217446
O 0.6550025 0.26221168 1.0347552
H -1.1491868 0.45418215 2.5887682
H -2.1027431 -0.33139315 -0.82247376
H 2.5871372 0.2717488 0.41200516
H 0.5593535 -0.46385375 -2.3825846
