11

N 1.6157868 -1.5999069 0.6433029
C 0.7566648 -0.7353329 0.30457166
C 0.85699636 0.6705908 0.7367316
N 0.021738315 1.5892391 0.43092835
C -1.0553523 1.2047819 -0.37757894
C -1.2036214 -0.04923587 -0.8036138
O -0.32580343 -1.0421641 -0.48540926
H 1.3951055 -2.5172682 0.25914788
H 1.7147869 0.91204554 1.3607593
H -1.7655293 1.9783908 -0.64032716
H -2.010772 -0.4111402 -1.4285127
