11

N 0.98411884 0.73184186 0.83690682
C 0.84575024 -1.40965655 0.18544727
C 1.60611979 -0.55186087 0.90544365
N -1.91542603 0.43813023 -1.15052886
C -0.10196198 1.09003913 0.22383110
C -0.85853827 0.10713113 -0.53467910
O -0.33116480 -1.13934318 -0.51500654
H 1.07093413 -2.46417920 0.06475926
H 1.47630018 1.45308180 1.34911546
H -0.45406134 2.11343746 0.26206184
H -2.32207054 -0.36862183 -1.62735106
