10

O 0.034842346 -1.2336625 0.8314004
C -0.3214784 1.1509104 0.22389558
N 0.38198352 -0.20716171 -1.1774477
C 0.40693668 -1.2473934 -0.42922208
C -0.39447194 0.14233918 1.2159019
N -0.8134587 0.6682683 2.230166
H 0.6959733 -0.3642236 -2.1298013
H 0.736269 -2.2383802 -0.7538977
H -1.2348919 1.4792846 -0.26160064
H 0.5082962 1.8500186 0.2506057
