10

O -1.0514371 -0.6222222 0.45559675
C -0.80575585 0.10027752 -0.64361805
N 1.0444932 -0.17591028 1.3232696
C -0.047556147 -0.7935443 1.3697178
C 0.04935553 0.8214864 -1.5314822
N -1.4588664 0.49991387 -1.6305946
H 0.31916425 1.8537742 -1.3166354
H -0.3904853 -1.5288799 2.1011927
H 0.7018915 0.2943076 -2.227054
H 1.6391963 -0.4492031 2.099608
