10

O 0.29231715 0.8837201 1.3059199
C 0.95505184 -1.0301253 0.002367814
C -0.17599386 -0.10670253 0.45066148
O -0.91642255 1.6965753 -0.89928144
C -0.82101095 0.49862817 -0.78640795
O 0.758725 -2.0056314 -0.67467785
H -1.1730108 -0.21240462 -1.5546881
H -0.94088054 -0.7414963 0.9277079
H 0.058372233 1.7303319 0.88990784
H 1.9628526 -0.71289515 0.33849037
