10

O 0.82013834 0.9350896 -1.7088174
C -0.019202577 0.8145927 -0.6032695
C 0.20789185 -0.49019745 0.12184507
O 1.0245875 -1.3002588 -0.2628419
C -0.6161136 -0.78923404 1.3635874
O -1.4416528 -0.023397127 1.7889769
H 1.347629 0.12518238 -1.7500069
H 0.141055 1.6354965 0.11328526
H -1.0797455 0.86063117 -0.8939351
H -0.38458708 -1.767905 1.8311759
