12

N -0.17610325 -1.7201598 1.3846757
C -0.33028224 1.2495284 0.14537656
N 0.10034998 0.61169815 1.2568607
C 0.44634745 0.21214266 -1.4598106
C 0.5937337 1.4560362 -0.97119915
C -0.101618215 -0.56034833 0.68228674
N -0.32631263 -0.65889657 -0.6872923
H 1.2406628 2.285274 -1.2187568
H -1.3994687 1.490992 0.035525557
H -0.39910588 -1.6664624 2.365959
H -0.48572475 -2.524678 0.86688924
H 0.8375215 -0.17512596 -2.4005144
