12

N -0.64175176 -0.64227276 0.15466356
C 0.46043214 -0.47794214 -0.76005023
N 1.46697827 -0.35778232 0.03559002
C 0.47871755 -0.43305469 1.14584244
C -0.19694721 0.84729972 1.56251329
C -1.13471512 0.64728893 0.62880482
N 0.35319561 -0.53463319 -2.11030468
H -0.55050414 -0.34681932 -2.51168201
H -2.02574351 1.14127174 0.25834099
H 0.64445569 -1.22553938 1.87940693
H -0.00684891 1.57581200 2.33737314
H 1.15273159 -0.19362823 -2.62049779
