10

O 0.059022114 1.4377383 -1.3850024
C 0.67201287 -0.92691 1.2909876
N -0.9620938 -0.2926714 -0.20373577
C -0.60834694 -1.1614093 0.85516053
C 0.07914326 0.48976645 -0.44007322
N 1.0427887 0.14425069 0.40993166
H -1.8260784 -0.23925918 -0.7201714
H 1.948065 0.585857 0.4495793
H 0.93229 1.842506 -1.4541717
H -1.3368028 -1.8798689 1.1974955
