10

O 0.059517022 -1.4495504 1.6637605
C 0.037324224 -0.47821298 0.7373654
N 0.13637413 0.8004866 0.9516581
C 0.057094984 1.3636829 -0.30973506
C -0.0884955 0.40705955 -1.264576
N -0.10058236 -0.79970556 -0.5688197
H 0.16376391 -0.99643457 2.5140555
H 0.11171426 2.4351604 -0.44398102
H -0.18273467 0.4476818 -2.3387609
H -0.19397597 -1.730168 -0.9409671
