11

O -1.0023907 1.9266355 -0.74389
C 0.4247629 0.48206502 1.1935775
C -0.07243523 -0.11573121 -0.076159306
C -0.94630635 0.7226347 -0.8924032
O -0.04133941 -1.9805555 -1.4818172
C 0.41993645 -1.4435831 -0.5031547
O 1.6338651 0.088665 1.281429
H 1.165851 -1.9072983 0.15855078
H -1.5921165 0.18778469 -1.6085119
H 0.26027954 1.5069774 0.60375315
H -0.25010666 0.53240633 2.068626
