12

N -0.7444435 -1.0223287 -1.0325028
C -0.23549543 -0.6345463 0.2783669
C 0.56974506 0.66444033 0.087530166
O -0.16429654 1.575832 -0.6812944
C 0.8882973 1.2606436 1.3966509
N 1.1537309 1.684532 2.4379694
H -0.042377453 -1.5321463 -1.5608212
H -1.5602385 -1.6147645 -0.9525758
H -1.0937243 -0.41304454 0.92552304
H 0.38199243 -1.3948022 0.7740444
H 1.531006 0.4219273 -0.3976971
H -0.68419605 1.004257 -1.2751932
