12

N 1.1743858 0.60257995 0.51041496
C 0.9903329 -0.50810593 1.266329
C -0.024604933 1.0298235 -0.21918984
O -0.57279104 -1.008073 -1.4841009
C -0.78903186 -0.301468 -0.28868327
N -0.21968533 -0.9725086 0.8810017
H -0.59561783 1.7740464 0.34831697
H -0.51999927 -1.900812 1.1299824
H -1.8685268 -0.17782982 -0.20375293
H 0.1955709 1.4110987 -1.2193751
H 0.3692165 -1.2299731 -1.516851
H 1.860751 1.2812219 0.79590815
