10

C -0.56381184 1.0369536 0.5008567
C -0.07577329 -0.25823343 -0.070123866
O -1.0887291 -1.1652755 -0.1277507
C 1.1735443 -0.50106245 -0.4693907
H 1.4640142 -1.4681312 -0.87582195
H -1.3769555 1.4360145 -0.11570298
H -0.7465807 -1.989674 -0.49786618
H -0.9647582 0.87624204 1.5077945
H 0.24255513 1.7706525 0.54959697
H 1.936495 0.26251394 -0.4015919
