10

C -0.2505682 0.19548841 -0.12499187
C 0.80816406 -0.3741872 -1.0070434
O -1.2209349 0.87981856 -0.62117875
C -0.39752153 0.16044152 1.2859576
H 0.4597271 -0.0011794277 1.9382541
H 0.57113755 -1.4255277 -1.2006081
H -1.2891072 -0.38866007 1.5932486
H -1.3105779 1.1335849 0.60975623
H 0.8469437 0.15808174 -1.9612384
H 1.7827374 -0.33786058 -0.5121559
