10

C 0.9416846 0.7702297 0.44511646
C -0.70423806 -0.9711984 -0.48667407
O -1.3974264 1.1961803 0.23327814
C -0.4867855 0.41745764 0.0799038
H -0.15296897 -1.0809394 -1.4273719
H -1.7698199 -1.1379472 -0.66736984
H -0.32169047 -1.7301 0.20310745
H 1.6126543 0.582807 -0.3992756
H 1.0021718 1.8185186 0.74643576
H 1.2764183 0.13499169 1.2728497
