10

C 0.52650446 1.0987705 -0.5468126
C 0.68476003 -0.1084695 0.18936276
O 1.5689808 -0.9952601 0.032174144
C -0.84120023 -0.7421216 0.18399173
H -1.6042795 -0.039826825 0.5137676
H -0.2484656 1.8088951 -0.26556608
H 1.1644818 1.3313419 -1.396497
H -0.7551243 -1.5839478 0.8684293
H 0.5438205 0.3328269 1.2465265
H -1.0394777 -1.1022086 -0.8253765
