10

N -0.31560284 -1.2572677 0.91967833
C 0.5735207 -0.26630166 0.60049343
O 1.6505579 -0.11688316 1.1362119
C 0.12870856 0.62690294 -0.54124
O 1.003997 1.6166439 -0.7257145
N -0.9132506 0.5303354 -1.2643696
H -1.2988619 -1.1265117 0.74376434
H -1.4297506 -0.3303789 -1.1173997
H -0.08090724 -1.8049893 1.7334771
H 0.68158895 2.1284502 -1.4849013
