10

N 0.8265932 -1.5068634 -0.455728
C -0.2029381 -0.6486817 -0.36272314
O -1.334877 -0.816097 -0.78029543
C 0.2023866 0.6476634 0.36451122
O 1.333698 0.8133748 0.7848179
N -0.82571715 1.5081182 0.45319802
H 1.7121228 -1.2322301 -0.05870172
H 0.70424825 -2.3982491 -0.90499306
H -0.702295 2.398748 0.90210235
H -1.7132217 1.2342169 0.0578118
