10

C -0.21542234 -0.65597694 0.20699240
C -0.58793422 -0.23474404 -1.20132394
N 0.40362854 0.52776364 -1.48850736
C 0.98497445 0.24227378 -0.14762902
C -0.40961565 0.46443415 1.20968861
N 0.56579771 1.23090862 0.88944655
H -1.44021445 -0.46035075 -1.83988627
H -0.19098237 -1.70393778 0.50660754
H 2.03458700 -0.05398283 -0.12732848
H -1.14481851 0.64361190 1.99194011
