10

C 0.059096273 -0.7100545 -0.10903483
C -0.777619 -0.2782946 1.0792087
N -0.19409032 0.8208863 1.3837821
C 0.7898535 0.5875734 0.28557748
C -0.20435368 0.14293277 -1.334826
N 0.38931504 1.2294481 -0.9969934
H 1.8417128 0.67149734 0.5620108
H -1.642786 -0.71228296 1.5768888
H -0.74543554 -0.04066019 -2.2614143
H 0.48430687 -1.7110457 -0.18519935
