10

C -1.2204926 -0.38138035 -0.35024762
C -0.09319418 -0.81276846 -1.044056
N 1.1345606 -0.4347166 -0.6967415
C 1.2208471 0.38032457 0.3502558
C 0.09254119 0.8124679 1.0443548
N -1.1343234 0.4338438 0.6982415
H -2.2169466 -0.7009401 -0.648387
H -0.18246682 -1.4777563 -1.8994555
H 2.2175229 0.7000909 0.64720416
H 0.18195198 1.4808344 1.8988315
