9

O -1.810327 1.103288 -1.1789403
C 0.8501077 -1.1661838 -0.22883463
N -0.7830296 0.4206761 0.89778423
C -1.0204864 0.68933594 -0.3869503
C 0.3614975 0.23919134 -0.050135348
O 0.35654193 -2.1238117 0.30576402
H -0.8032839 1.0829904 1.6596152
H 1.7188295 -1.2562245 -0.91388375
H 1.1301501 1.0107381 -0.10441918
