9

O -1.2194612 -0.6438147 -0.8790772
C 0.97810113 -0.0019320197 -0.9524353
N 1.1165296 -0.3965835 0.26852965
C -0.016046124 0.3681806 0.81467134
C -1.2106181 0.06854728 0.1482317
O 1.157457 0.44952217 -1.9975475
H 1.1511403 -1.4041693 0.42675903
H -2.14117 0.5041479 0.547467
H 0.18406767 1.0561016 1.6234013
