10

O 0.28677994 -0.20137978 -1.9023486
C 0.40464908 -0.49158823 -0.54264283
C -0.8765873 -0.6014563 0.3465234
O -1.8937011 -1.2341049 0.29029202
C 0.75400054 0.62264305 0.4405214
C -0.33031255 0.48276728 1.2182547
H -0.6813624 0.95882255 2.1263916
H 1.0463053 -1.3764222 -0.46766803
H -0.31746325 0.548566 -1.9954851
H 1.607692 1.2921524 0.48616126
