10

O -0.25729144 1.0892227 -0.8629563
C 0.7696856 0.4199969 -0.23178926
C -0.3665625 -0.49572375 -0.39438877
O -0.8548981 0.80149585 1.6808696
C -0.03848446 -0.047596112 1.0017542
C 1.2351593 -0.76951784 -0.8565945
H -1.1323953 1.4787666 1.0416468
H -1.0278456 -1.0204512 -1.0566353
H 1.219199 -0.67457336 -1.9509928
H 0.4534333 -0.78161985 1.6290863
