10

O 0.8761667 -0.114760175 -2.0175993
C 0.7655245 0.07045759 -0.76887923
C -0.4133619 -0.28194472 -0.049733955
O 1.2628427 1.0241293 0.006404896
C 0.14216791 0.746208 0.95486474
O -0.740939 -1.5715661 0.35304943
H 0.5357545 0.3173868 1.8789834
H -0.39638376 1.6799704 1.1212798
H -0.35955092 -0.1612194 -1.6338173
H -1.6722205 -1.7086616 0.15544741
