10

O 1.2188667 -1.2734315 0.6288213
C 0.18252502 0.8837876 -0.13144808
C 0.26437655 -0.4258362 0.14584379
O 0.9220537 1.9828991 -0.22616796
C -1.2372589 -0.45358658 -0.027804192
O -1.1565344 0.982321 -0.3543844
H -1.657122 -1.0026283 -0.8755016
H 1.8230121 1.7721546 0.05093854
H 1.4858935 -1.8747423 -0.08022717
H -1.8458122 -0.59093726 0.8699297
