9

O -1.1368554 -0.06752392 -0.7171431
C 0.11542775 -0.12562409 -1.0626165
N 0.9022102 0.013777668 0.22280985
C -0.06609828 0.16103874 1.4038779
C -1.2133312 0.10140606 0.73670506
O 0.60718584 -0.26042902 -2.1430714
H -2.2426138 0.15481816 1.0583857
H 1.5091395 -0.80028707 0.34521288
H 1.5249351 0.82282346 0.15583977
