9

O 1.27512336 0.94720122 -1.58307402
C 0.45729393 0.48426594 -0.84535650
N 0.77655411 -0.17036181 0.48141244
C -1.38416980 -0.25242140 0.21341835
C -0.52226416 -0.64931124 1.14315818
O -0.83547227 0.41771213 -0.96891511
H 1.42251281 -0.94958814 0.33447449
H -2.45927799 -0.32358629 0.14390643
H 1.26970013 0.49608945 1.08097571
