9

O 1.742075 0.5411277 -1.6428618
C 0.8879444 0.35476604 -0.8194561
N 0.26811248 -0.8136171 -0.44197014
C -0.67080617 -0.55703443 0.55802935
C -0.6163958 0.75810206 0.7832172
O 0.32239115 1.336419 -0.039598133
H 0.48978865 -1.7012599 -0.8577012
H -1.2761678 -1.328815 1.0034491
H -1.1469418 1.4103115 1.4568917
