9

O 1.8725239 0.99581677 0.9487187
C 0.9759599 0.47146767 0.3581264
N -0.3095068 0.12839544 0.87706256
C -1.1289886 -0.65970665 -0.18248907
C -0.26368064 -0.5410764 -1.2024558
O 0.9691439 0.053649414 -0.9161848
H -0.39695847 -0.07988538 1.8643223
H -0.36195546 -0.8622637 -2.22919
H -1.3565376 0.4936028 0.48208955
