10

O -2.4584692 -0.41168258 0.9430096
C 0.6228882 -0.235313 -0.73750234
C -0.012157816 -0.08051091 0.6206471
O -0.33965126 -0.17356268 -1.7706444
C -1.3108901 -0.2750921 0.7838285
O 0.76733494 0.100800954 1.7534046
H -0.705721 0.7185453 -1.7796203
H 1.4096682 0.52670205 -0.8494246
H 0.92659163 1.0462317 1.8637731
H 1.1004065 -1.2161188 -0.8274714
