11

N -1.0756229 1.3655795 0.66339487
C 0.65102905 0.57632273 -0.53305584
C 0.50450623 -1.6473837 -0.21786861
N -0.5059108 -1.18181 0.47980657
C -0.36843252 0.1614462 0.25655943
N 1.2237418 -0.6501623 -0.83628166
H -0.15804501 1.8324318 -0.0605653
H 2.032365 -0.8051262 -1.4166507
H 0.76324314 -2.6938617 -0.31192553
H -1.0372704 1.5851145 1.6567967
H -2.0296037 1.4574491 0.3197901
