11

C 0.7650083 -0.484463 -0.21310031
C -0.42938587 1.5258551 0.019619865
O -0.03760272 0.44993228 -0.82708395
C -0.7502298 -2.140187 0.65577435
O 0.0511085 -1.1369474 0.8780105
H -1.1131256 1.1806976 0.80376285
H 0.44715446 2.0054536 0.47827864
H -0.9389945 2.2404943 -0.62841
H 1.6510589 -0.04343376 0.25445542
H -0.65892154 -2.3527787 -0.460164
H 1.0139298 -1.2446228 -0.96114326
