11

C -0.8390833 -0.1422315 -0.71253824
C 0.40496373 -0.9279911 -0.29106474
O 0.65966606 -0.42881274 1.0099641
C 0.35066262 0.9362591 0.92158026
O -0.73833746 1.0653077 0.028890267
H -1.762655 -0.6612902 -0.43471962
H -0.86163795 0.07843158 -1.7856221
H 0.25333524 -2.0071588 -0.2265435
H 1.2539744 -0.7152809 -0.9578998
H 0.06663707 1.2998577 1.9133079
H 1.2124745 1.5029093 0.5346454
