9

O -0.83139473 -1.6186192 -0.7097094
C 0.69601977 0.7937051 2.320553
C -0.96724343 -0.526162 -0.22315152
O 1.2639668 -0.030807238 -0.9436852
C 0.20283064 0.46170482 -0.22282495
N 0.5021966 0.6762456 1.1669766
H -0.10501776 1.4270653 -0.63943034
H 1.1353376 -0.9902496 -1.0185227
H -1.8966955 -0.1928826 0.26979455
