9

O 1.5553184 -0.22074425 -1.1199243
C -0.91933554 -1.3111068 0.43746936
C 0.35796493 -0.09139038 -1.0430502
O 0.69923186 0.70702606 1.1665436
C -0.23100844 0.4115153 0.26195696
N -1.6425834 -0.6317609 1.0980645
H -0.3460457 -0.3037625 -1.8629494
H -0.99464357 1.1802317 0.17126863
H 1.5211016 0.25999174 0.89062077
