12

N 1.6494097 0.73387975 -0.68857455
C 0.5848786 0.5965774 -1.5018549
C -0.68962884 -0.23975116 0.19010252
N -1.9341941 -0.6625607 0.5666764
C 1.5865949 0.36068586 0.64685583
N -0.5719418 0.11980307 -1.113697
C 0.37611762 -0.14386803 1.0987946
H 0.7157984 0.8959149 -2.5396183
H 2.619678 0.87772405 -0.023283765
H 0.2510328 -0.44977814 2.1330762
H -2.0155885 -1.2033848 1.4121932
H -2.572157 -0.8852422 -0.18067023
