12

N 1.1300629 0.17425579 0.3440532
C 0.72302186 1.4050499 0.37438762
C -1.5642688 0.9523478 -0.3638234
N -0.53609455 1.78324 0.036291394
C -1.0954614 -0.3789065 -0.39754817
N 0.6809788 -2.0243194 -0.16908452
C 0.21216746 -0.74298424 -0.06455784
H -1.7871839 -1.1574867 -0.70774186
H 1.4095087 2.1891153 0.6884501
H 1.5619209 -2.1991332 0.29373905
H -0.74415106 2.7715995 0.096317485
H 0.009499102 -2.7727787 -0.1304831
