12

N 0.87511316 -0.09622151 -0.80665869
C -0.80196623 -0.06748491 0.92409214
C -1.63644455 0.85974128 0.26299209
N -1.06442741 1.19914837 -0.94746865
C 0.12003183 0.74998566 -1.43534171
N 1.17270934 -1.48504042 1.00478777
C 0.40452543 -0.53200034 0.39311975
H -1.12165796 -0.44462158 1.89179685
H 1.07761604 -1.59432949 2.00056864
H -1.57146397 1.85831513 -1.52380037
H 0.43655750 1.13502348 -2.40292393
H 2.10940707 -1.58251579 0.63883638
