9

C -1.8767492 -0.1709862 -1.4215592
C 0.12774648 0.38643056 -0.050008446
C -0.8817491 -0.2858772 -0.59608847
C 1.0937055 -0.18088603 0.9407282
O -2.8081765 -0.25940472 -2.1247048
H 0.8710378 -1.2245127 1.1682191
H 1.0640191 0.40771538 1.8657252
H 2.1156833 -0.10116025 0.5497499
H 0.2944826 1.4286813 -0.33206153
