9

C 0.77398884 0.11772785 -1.654984
C 0.15180045 0.024076259 -0.3332107
C -0.34929785 -0.043192413 0.759508
C -0.97190094 -0.14920117 2.0678322
O -0.65300834 0.51818144 3.0248716
H 0.81408584 1.1596513 -1.984604
H 0.2157612 -0.459398 -2.3969226
H 1.7977507 -0.26471007 -1.6174682
H -1.7791799 -0.9031351 2.1349776
