10

O -1.0112431 2.3224318 -0.15811552
C -0.31580442 -1.2091758 0.15260087
C -0.6000758 -0.017408734 -0.30220425
C -0.81848377 1.1604927 -0.82680535
N 1.0244635 -1.6818216 0.3547737
N 1.8129041 -0.81085473 0.7644857
H -0.8696968 1.3063087 -1.9035558
H -0.8798099 2.1680589 0.78567225
H 2.734638 -1.2697091 0.8169231
H -1.0768919 -1.9683222 0.31622538
