12

N -1.5229605 -1.099858 -1.3439248
C -0.6200364 -0.45195872 -0.55163753
N -0.69238317 -0.69633883 0.764577
C 0.22023416 -0.08935176 1.5150918
C 1.1940005 0.7543048 0.9955778
C 1.15667 0.9352791 -0.38266632
N 0.26158747 0.34819832 -1.1689647
H -1.6455688 -0.7461889 -2.2787378
H -2.322087 -1.5006512 -0.8804032
H 0.1651081 -0.28264016 2.5858788
H 1.930872 1.2419635 1.6225646
H 1.8745638 1.5872421 -0.87735516
