12

N -1.34096557 -0.05359102 -0.02382186
C -0.32219075 -1.11728533 -0.18887272
N -1.35680680 0.33888533 1.38586225
C -0.16914081 0.16022393 1.80032481
C 0.66679321 -0.37418954 0.67669519
C 0.03410741 0.20823455 -0.57189410
N 0.50674301 0.81585867 -1.72572252
H 0.00908508 0.52367170 -2.55552624
H -0.41563649 -2.07534616 -0.67833924
H 0.15127035 0.37014768 2.81415376
H 1.72156974 -0.62386987 0.72194380
H 0.51517178 1.82726031 -1.65480264
