13

C -1.2491708 0.7928811 0.014721799
C 0.6277416 -0.10628047 0.09699402
O 0.117681704 1.2437558 -0.023136714
C -0.8075367 -0.65500623 0.24327807
O 1.4941787 -0.20369734 1.171857
N 1.3494053 -0.59216136 -1.0219393
H 1.1085454 0.30537093 1.8958055
H 0.8093088 -0.5009621 -1.8761181
H 2.2244985 -0.08981358 -1.1185372
H -1.8079058 1.2642696 0.8290772
H -1.0035926 -1.0607295 1.2389178
H -1.766438 0.9832574 -0.93264025
H -1.0967162 -1.3808843 -0.51828015
