13

C 0.33645245 -0.89986223 -0.1350611
C 0.30313748 0.5959678 -0.38697416
O 0.96261543 1.4327105 0.39135638
C -0.48070478 -0.8918471 1.1716284
O -0.9398676 0.42701608 1.2029734
N -0.04026989 1.0573546 -1.5873026
H 0.3272247 1.2298927 1.2082232
H 1.3784682 -1.2358974 -0.072019555
H -1.3060615 -1.6180717 1.1087711
H -0.023928277 2.0533376 -1.7363625
H 0.13592191 -1.1712168 2.0448
H -0.49628094 0.46508855 -2.2605193
H -0.15670697 -1.4444724 -0.94951326
