11

C -0.3259355 -0.83562464 -1.6287425
O -1.3156444 -0.3081129 -0.73740274
C -0.036934704 -0.6019531 -0.22721565
C 0.40675747 1.0487818 1.346349
O 0.75963587 0.46308783 0.100860976
H 0.4530286 0.3089725 2.1589592
H 0.058655642 -0.12553734 -2.3573916
H -0.014889213 -1.4223909 0.49743897
H -0.52162635 -1.8427726 -1.9953887
H 1.136969 1.8366781 1.5394791
H -0.6000162 1.478871 1.3030539
