10

O -0.1032814 1.2425889 -1.3941797
C 0.29990485 -1.0975595 -0.32555515
N -0.6909705 0.34701502 0.84814775
C -0.3500205 -1.089744 0.8366504
C 0.13607997 0.409753 -0.34733427
N 0.70184845 0.97034717 0.8420177
H -0.76052475 0.8354624 -1.9724139
H -0.56798995 -1.7758164 1.6449741
H 0.5040664 1.9743639 0.7977604
H 0.8308873 -1.8164108 -0.9300675
