10

N 1.692375 -0.18298523 -0.56106824
C 1.1550407 0.67506945 0.21719655
C -1.0082886 -0.36024484 0.04507928
C -0.27097255 0.6552323 0.5286118
C -1.3065283 -1.5584315 -0.45930454
H 2.6948426 -0.015404689 -0.6403493
H -0.72231376 1.4395032 1.1244496
H -2.0841224 -0.5527176 0.43401286
H -1.868331 -1.5811869 -1.3977249
H 1.7182982 1.4811658 0.7090967
