10

O 1.7300843 -0.46824297 -0.45325646
C -0.62862605 0.870729 0.5347346
C -0.58166105 -0.5225448 -0.018505191
C 0.7428194 -1.1684523 0.06311525
N -0.7111923 0.65330106 -0.88569534
H 0.19877739 0.8347574 -1.3090299
H -1.4545618 -1.1610414 0.067147434
H -1.5439209 1.1985426 1.0211824
H 1.9495517 -1.5050757 0.035753082
H 0.2987293 1.2680268 0.944554
