10

O 1.5203418 0.32497868 0.8249243
C -0.8893668 -0.76960427 -0.20021787
C -0.149423 0.44596127 -0.68851095
C 1.3142384 0.42520452 -0.48464936
N -1.1404331 0.5156641 0.39545715
H -0.3141693 -1.5075889 0.35955018
H -1.6829346 -1.1752446 -0.821073
H -0.48118562 0.87960756 -1.6292703
H 2.4761724 0.27117196 0.9586738
H -0.6532405 0.58984977 1.2851162
