10

O 1.8307283 -0.16225871 0.776399
C 1.1355749 -0.8125921 0.032016248
C -0.11771092 -0.26720807 -0.5596817
C -1.0603563 0.3884761 0.39562106
N -0.293589 1.1805898 -0.538572
H 1.3975172 -1.8514669 -0.24995843
H -0.50876987 -0.78325146 -1.433451
H -2.1262507 0.32846296 0.19555593
H -0.76963913 0.39627925 1.4453536
H 0.5124955 1.5829693 -0.06328289
