11

C -0.52070022 -0.49314937 0.53610294
C -0.05513656 -0.79037122 -0.89850641
C -0.26702482 0.89386813 1.06995108
O -1.09561863 -1.35430212 1.15284587
C 1.16959461 -0.08956984 -1.28968254
N 2.13440260 0.47516416 -1.57480564
H -0.86302004 -0.48675284 -1.57636134
H -0.79023000 1.02518288 2.01808084
H -0.59433428 1.65104637 0.34995273
H 0.07423260 -1.87026858 -1.00650856
H 0.80783458 1.03915237 1.21893123
