11

C -0.9887406 0.89312255 -0.11728658
C 0.058807213 -0.19472241 -0.17060162
C 0.6743297 -0.73966557 1.0472329
O -0.31427732 -1.4660492 0.33671662
C 0.837843 -0.24458058 -1.4091008
N 1.4462718 -0.24696618 -2.391108
H -1.7162888 0.76317537 -0.92361397
H -1.5141034 0.84997094 0.839413
H -0.52399117 1.8779104 -0.22540016
H 1.6793995 -1.1576911 1.0067271
H 0.36074993 -0.33450428 2.0070217
