11

C -1.009165 0.837167 -0.33472422
C 1.1701268 -0.038355466 1.0678115
O 0.79955196 -0.13154356 -1.5424678
C 1.2234768 -0.5822448 -0.283678
C -0.21535563 -0.43254453 -0.5377074
N 0.38768786 -0.4814466 1.872408
H -1.7226723 0.91150695 -1.1621975
H 1.7273018 -1.5501245 -0.28700805
H -0.43480116 -1.0627685 0.9510201
H -1.5602714 0.80404305 0.60758793
H -0.36587995 1.7263111 -0.35104483
