10

N -0.8253789 0.86973363 1.3530288
C -0.17269155 0.1769929 0.34857327
C 0.35056397 -1.0674869 0.2099765
N 0.98617077 -1.147288 -1.0281599
C 0.8120177 0.009264177 -1.5524435
O 0.114547804 0.8853167 -0.77179134
H -1.503852 1.5358503 1.0079485
H -1.2290406 0.2643322 2.0533166
H 0.33011788 -1.9026603 0.89439744
H 1.1375448 0.37594518 -2.5148466
