10

N -1.329815 0.51843584 0.027806368
C -1.1030993 -0.7909277 -0.5420345
C 0.90133613 -0.026622154 0.13464473
N 2.1446023 -0.0027393342 0.34289566
C -0.19395618 0.9462246 0.40744194
O 0.2899927 -1.0845511 -0.44856283
H -0.048627924 1.9154721 0.87662935
H 2.4199088 0.8710644 0.78633916
H -1.4068668 -0.8026231 -1.5930505
H -1.6734744 -1.543734 0.007890452
