10

N 0.10574452 0.30247203 1.5726526
C 1.0715977 -0.16233613 -0.61024046
C -1.078442 -0.06978641 -0.7232377
N 0.06433435 -0.68519527 -1.255147
C 0.46817335 0.72376156 0.3635444
O -0.6998787 1.1660486 -0.21728992
H -0.8478192 -0.4151483 0.87396806
H -2.0027509 -0.089320324 -1.2921766
H 2.0990684 -0.4892375 -0.7146678
H 0.8199727 -0.28125837 2.0025945
