10

O -0.7639863 0.5738404 2.4106507
C 0.14147523 0.8701098 -0.623842
O -0.8217454 1.4293898 -0.008722405
C -0.030144 -0.54207975 -0.9667033
C -0.4851555 0.18908978 1.3475337
C 0.23420785 -0.66018957 0.5288117
H -1.0189109 -0.83313024 -1.3229481
H 0.8710831 -1.4174443 0.97338784
H 0.7802382 -0.99495286 -1.5381298
H 1.0929376 1.3853669 -0.8000381
