10

O -0.15932709 1.67461578 -0.79441110
C -0.51735314 -0.62833700 -0.23682846
O 2.05882929 1.39150481 1.34139079
C 0.59697051 -0.52303522 0.76422855
C 1.33659260 0.54087947 1.01413221
C -0.78347346 0.65509637 -0.97580988
H 0.85033297 -1.39365426 1.36106607
H -1.60600902 0.61540115 -1.71841968
H -0.31281936 -1.40220038 -0.99061905
H -1.46374347 -0.93027079 0.23527051
