10

O -0.77600100 0.48595430 -2.03530541
C -0.13913738 0.09872590 1.31515330
N -0.92708007 0.59094547 0.27525752
C -0.35673874 0.22125491 -0.93596650
C 0.87609247 -0.56740649 -0.50103277
N 0.88961885 -0.56531962 0.95938668
H 0.83466943 -1.58944721 -0.89049267
H -1.76869042 1.13855252 0.36221482
H 1.78855254 -0.10590048 -0.89371151
H -0.42128570 0.29264088 2.34449665
