10

O 0.5380666 2.2732382 0.31904748
C 0.33285037 1.0867522 0.13289545
N 0.29970154 -1.206118 -0.43869615
C 0.93984497 0.07611171 -0.68001837
C -0.7007182 -0.95584166 0.39537874
N -0.70345783 0.33131868 0.7807807
H -1.3195038 0.7507715 1.4605753
H 1.8967981 0.10327749 -1.1749039
H -1.4345489 -1.6879739 0.7009288
H 0.15096714 -0.77153635 -1.4959881
