12

O -0.4592601 1.7946804 1.3580077
C -0.4944275 -1.4302188 0.06015351
C 0.5816954 1.5702931 0.7725966
C -0.3912812 -0.12218787 -0.72018653
N 0.71288353 0.7088989 -0.26775146
H -1.3355283 -2.0280082 -0.30472004
H -0.65227014 -1.2158571 1.1221511
H -0.25413507 -0.31167924 -1.7902414
H -1.3056957 0.46572316 -0.5962807
H 1.5359601 2.0726027 1.0237129
H 1.642297 0.52142376 -0.6122693
H 0.41976187 -2.0256705 -0.045172185
