12

O 0.00009507 2.07935255 0.97584600
C -0.39739558 -0.15605682 -0.71022710
C 0.95668549 1.49154392 0.51102350
C -0.85006204 -1.22025534 0.28631154
N 0.87702450 0.44114406 -0.34445803
H -0.29619131 -0.57645982 -1.71658314
H -1.12956157 0.65572622 -0.75591256
H 1.73145426 -0.03715165 -0.58701083
H 2.00432931 1.77591563 0.72913035
H -1.81134245 -1.64560047 -0.01857683
H -0.96464965 -0.77260437 1.27887509
H -0.12038621 -2.03555368 0.35158208
