11

O -1.1348796 -0.46360698 1.9685198
C -0.58027756 -0.29709598 0.9346658
C 1.0898446 -0.18104765 -0.30303898
N 0.21410447 0.8451422 0.35891837
C -0.75932753 0.6033853 -0.9723147
C -0.31594962 -0.8221712 -0.458008
H 1.8208203 -0.62717456 0.38432428
H 1.5234008 0.18721206 -1.2298033
H -1.7907755 0.8297901 -0.61445504
H 0.5058524 1.7078454 0.8109964
H -0.57281286 -1.7822787 -0.8798047
