12

N -1.2078683 -1.5308325 0.4050547
C 0.4032981 0.23795159 -1.0231174
C -1.000425 -1.7171746 -0.9210858
N 1.0061138 1.3332207 1.0753566
C 0.31202355 0.3693436 0.34954375
N -0.17331265 -0.84429455 -1.5881277
C -0.51903653 -0.57164556 0.99991643
H 0.9353379 0.93744916 -1.6641396
H -0.97485703 -1.4424638 -2.236896
H 0.5952636 1.5666609 1.9665178
H 1.2636889 2.1584783 0.5541926
H -0.64022624 -0.4966936 2.0827844
