12

N 0.5985594 1.1258299 -1.4923865
C -0.86077076 0.47008452 0.34280896
C 1.0588752 -0.8093632 -0.036101032
N 0.82005763 -1.6009549 0.9796365
C 0.24304928 0.28544307 -0.43203765
N -1.0543102 -0.3799008 1.4000609
C -0.28682098 -1.4345957 1.8113104
H -1.8780347 -0.21723458 1.9656049
H 1.1653237 0.6847933 -2.199061
H -1.5974529 1.2520014 0.1781412
H 1.9578985 -1.0210449 -0.6200062
H -0.16637449 1.6449419 -1.8979708
