11

O -1.274263 -0.17836028 1.9336838
N -1.1654721 -0.76749295 0.6717513
C -0.23854546 -0.22963831 0.0080015985
C 0.29702812 -0.4664796 -1.3772937
O 1.2569683 0.5870916 -1.1720788
C 0.79097044 0.85883504 0.16232754
H -2.0054083 -0.67180353 2.3268135
H -0.39398965 -0.24926409 -2.1994276
H 0.77524185 -1.439026 -1.5455972
H 1.5609754 0.68040526 0.92116183
H 0.39649445 1.8757329 0.27065814
