11

O -0.8960929 -0.58013195 -0.35713327
N -0.4194508 1.6106741 -1.3700006
C 0.7546548 0.62132293 0.6054679
C -0.37952825 -1.2350683 0.73443365
O 0.40851557 -0.24520418 1.4791
C -0.03302645 0.57234734 -0.6702962
H 0.98850006 0.15094176 -1.0838172
H -1.1576356 -1.5748547 1.4153993
H 1.4179764 1.4154695 0.9238521
H -1.008146 1.2990981 -2.1398711
H 0.32423335 -2.0345945 0.4628654
