11

O -1.47799755 0.25578208 0.80056688
N 1.53863041 -0.32311925 -1.10275743
C -0.46001009 0.62782310 -0.13200556
C 0.32615882 -0.61051626 -0.55687398
O -0.13909036 -1.72398774 -0.46436282
C -1.05315813 0.09233326 2.02112569
H -1.98922959 -0.23003639 2.54294971
H -0.98336726 1.04732574 -0.99439102
H 2.10008837 -1.10481092 -1.40803741
H 1.95418757 0.58850757 -1.04224016
H 0.18378784 1.38069885 0.33602649
