9

N 0.57872075 1.0162531 0.018997077
C -0.18498409 -1.0059904 1.172353
C -0.46344218 1.0729183 -0.9601554
C 0.20449202 -0.39789104 -0.09441694
N -0.47519064 -1.4915885 2.1789334
H 0.2070571 1.365226 0.9034867
H 0.9310374 -0.98799235 -0.6466603
H 0.04040804 0.8015226 -1.9120575
H -0.8380984 -0.3724579 -0.66047966
