11

N 1.57336265 -0.78585678 -0.68787182
C 0.83294714 0.21189770 0.01073022
C -1.02737784 -0.07640670 0.84695480
C -0.58855228 0.46291200 -0.51921833
C 2.17205722 -1.61505325 -1.26521529
O 0.34263595 -0.25022791 1.25640540
H -1.56423455 -1.03078850 0.83355337
H -0.81301327 1.51292488 -0.71052647
H -1.55192099 0.63338935 1.49360187
H -0.85877669 -0.14816912 -1.38173218
H 1.48287255 1.08537863 0.12331872
