10

O 0.21649295 2.212153 0.38962004
C 0.11848764 0.8838252 0.16087681
C -1.0030538 0.19648668 -0.21499224
N -0.5703592 -1.118856 -0.3124669
C 0.7438652 -1.1408778 0.0016461789
N 1.1963046 0.057804227 0.29433602
H 1.1303493 2.3746667 0.655896
H -2.0197458 0.4942944 -0.41173586
H -1.1401873 -1.9088209 -0.56729084
H 1.3278464 -2.0506754 0.0041108155
