10

N 0.59213275 -0.6666614 0.39419892
C -0.1218946 -0.7415796 -0.89774746
C -0.9002568 0.53083843 -1.0534419
C -0.5926654 1.2276809 0.12022248
C 0.28152522 0.49569592 0.9408352
H -0.9647503 2.2097087 0.3962865
H -0.7896031 -1.6092578 -0.9029509
H 0.69562775 0.7696401 1.9077226
H 0.59996337 -0.8619603 -1.7140647
H 1.199921 -1.354105 0.80893916
