15

N -0.47662765 -2.2359717 1.2979054
C -0.31779027 -0.9246227 0.9014959
O -0.7975149 0.0015501006 1.5448424
N 0.4161793 -0.76051086 -0.24388383
C 0.9340358 0.53906244 -0.673724
C -0.13293791 1.5822935 -1.0150133
O -0.60490954 2.2999504 0.09207679
H -1.1909246 -2.3413575 2.0045583
H -0.47663376 -2.9565222 0.59257066
H 0.9653221 -1.5580093 -0.52965164
H 1.5306755 0.33986416 -1.569516
H 1.5976822 0.969584 0.08829943
H -0.9403435 1.0830802 -1.5744277
H 0.31999868 2.321946 -1.6855251
H -0.8262115 1.6396637 0.76999277
