10

O -1.05158701 -0.88363007 0.11353259
C 0.32591542 -0.71276042 -0.23475472
C -1.78568710 0.22368339 -0.03360374
O -1.36873539 1.27716686 -0.44107741
C 1.00473749 0.15856403 0.79675023
O 2.00451250 0.71266154 0.15421078
H 0.42381479 -0.33467978 -1.26007637
H 0.76677453 -1.71290050 -0.15754740
H -2.82162926 0.02119703 0.27058304
H 2.50188352 1.25069802 0.79198279
