10

O -0.124487296 -1.1817582 -1.084533
C -0.06687117 -0.4796757 0.113412306
C -1.3123194 0.37560493 0.33265865
O -1.4884497 1.0058482 1.3427308
C 1.1437931 0.44301602 0.14763527
O 1.9276105 0.44939798 -0.76971674
H 0.6747952 -0.9312362 -1.5781757
H 0.019735545 -1.1522647 0.98378736
H -2.0174298 0.37868005 -0.52191925
H 1.2436225 1.0923877 1.0341201
