11

N 0.819358 1.2972231 -0.6751821
C -0.97672194 -0.22808564 -0.022061987
O -0.47451314 0.22906512 -2.2305954
C -0.17145659 0.4603486 -1.070746
C -0.2624164 -1.2977647 0.7042289
O -0.13505192 -0.13979673 1.5608243
H 0.7322248 -1.5884653 0.36549538
H -1.140771 0.24622764 1.3116202
H 1.3599343 1.7671522 -1.3857476
H 1.0813477 1.3711653 0.29588652
H -0.8319336 -2.1170695 1.1462779
