13

C -1.5658637 -0.2687316 0.8809066
C -0.35473657 -0.034246434 0.15560059
N 0.48903182 -0.90875804 0.6370915
O 1.6584778 -1.1603132 -0.10987223
C -0.04920352 0.9075721 -0.97721094
O 1.234208 1.4674424 -0.93907976
H -0.7703145 1.7303472 -0.9402813
H 1.8484575 0.72784954 -0.8476696
H -1.5547715 0.19048466 1.8771894
H -2.5180216 -0.13065858 0.3664741
H -0.47702757 -1.3421651 1.2921861
H 2.2907736 -1.5323483 0.52012354
H -0.23100969 0.35352534 -1.9154581
