13

C -0.30073434 -0.2962938 1.6106044
C -0.1462106 -1.4122863 -0.6315896
N -0.24723962 1.0202866 -0.42380324
O 0.8315649 1.045736 -1.3411415
C -0.1967402 -0.22335225 0.28504202
O -0.07354944 2.0971875 0.46375027
H 0.37763995 1.3035223 -2.158357
H -0.32003024 0.5889286 2.233299
H -0.34881714 -2.3259497 -0.068422146
H -0.8959084 -1.3190285 -1.4231015
H 0.8813268 2.2827077 0.47402292
H -0.3995583 -1.267926 2.0833478
H 0.8382566 -1.4935323 -1.1036514
