10

O 0.45760754 -0.98652095 0.09864319
C -0.8089319 0.20458244 -1.5439817
N -1.8433138 0.44031367 -1.9968894
C 0.08344303 -0.41323718 1.2649134
C 0.5303492 -0.111599736 -1.0121357
N -0.177903 0.81620646 1.358469
H 0.06717987 -1.1799221 2.0415227
H 1.1035483 -0.6494605 -1.7721124
H 1.0330756 0.81980187 -0.7449733
H -0.4450548 1.0598361 2.306544
