10

O 1.6647922 -0.12667003 -1.4479505
C 1.1607453 0.7893813 -0.84217787
N 0.27664706 0.6450524 0.18776767
C -0.21621071 -0.6590075 0.5727687
C -1.6493343 -0.8158225 0.2803311
N -2.779437 -0.91445994 0.0735456
H 1.3850958 1.8507838 -1.052329
H -0.14971966 1.4677819 0.58549815
H 0.3596055 -1.3933992 0.0042755282
H -0.05218409 -0.84364027 1.6382704
