10

O 0.77576948 -0.75294844 0.15365260
C 0.12628226 -0.42217898 -1.06017034
N 0.05796825 1.25874938 0.97748154
C 0.67911651 0.17330578 1.13423961
C -1.33396078 -0.60918588 -0.96412937
N -2.47421755 -0.77868100 -0.92257926
H 0.33188309 0.61120792 -1.34557944
H 0.08909612 1.82050100 1.82189723
H 0.53081661 -1.11119827 -1.80650832
H 1.21724611 -0.18957155 2.01169551
