10

O 0.71479416 -1.240545 0.35987002
C -0.13978887 -0.06320408 -1.0806764
N -0.83350575 0.1783695 0.8889581
C 0.8465971 0.98369646 -1.1301843
C 0.027333658 -0.7102403 1.2656919
N 1.623368 1.8367754 -1.2019931
H -1.1371515 0.28470957 -1.3219198
H 0.17285393 -1.0070376 2.3109787
H 0.1353363 -0.94548726 -1.6471294
H -1.4098371 0.6829634 1.5564044
