10

C -1.1610829 0.061898857 -0.57069665
C 0.3480743 0.18662511 -0.5098515
O 0.9998992 0.5366761 -1.4642942
C 0.9912121 -0.1530226 0.8195092
H -1.5043494 0.16787589 -1.6024168
H -1.4892017 -0.89813834 -0.15969853
H -1.6144902 0.85003185 0.04169283
H 0.917837 -1.2326684 0.9908955
H 2.0439045 0.1376556 0.81087977
H 0.46819708 0.34306598 1.6439805
