10

C -0.055722382 -1.0930334 -0.6913631
C -0.6362842 0.07858668 0.0721809
O -1.8277929 0.22890891 0.20386474
C 0.36596447 1.0533482 0.65871614
H 1.0752387 1.3845555 -0.10618615
H -0.15498844 1.915639 1.0845281
H 0.9448126 0.5553857 1.4449711
H 0.72962254 -1.587482 -0.11023959
H -0.8457912 -1.8052303 -0.938817
H 0.40494075 -0.7306788 -1.6176552
