11

C -0.94653604 0.64690175 -0.95685396
C 0.50783142 0.59481876 -0.69361133
O 0.88398417 0.63216171 1.37182739
C 0.88240227 -0.40012276 0.37082125
C -0.06696849 -1.44131098 0.80421113
N -0.82198691 -2.28260047 1.05722507
H -1.26929676 1.64369931 -1.26420953
H -1.00999682 0.01271507 -1.86042051
H -1.62399696 0.21087318 -0.21171328
H 1.59749533 1.24455658 1.14205648
H 1.86706890 -0.86169205 0.24066731
