11

C -0.13313228 -0.6154355 -0.72644055
C -0.2846068 0.8691584 -0.69086367
O -1.56871 0.39168638 -0.26070416
C 0.35131785 1.6650032 0.3603892
C 0.49523494 -1.2466909 0.47174248
N 0.90064967 2.2914958 1.1622283
H -1.5475471 -0.49009854 -0.909251
H 0.037406083 -2.211713 0.69442195
H 1.5312326 -1.4429934 0.162088
H 0.52953905 -0.62400603 1.3741581
H -0.3113841 1.4135936 -1.6377689
