11

N -0.9045398 0.00787256 -0.72306424
C -1.1824291 -1.1274898 0.024298651
C 0.24006835 0.49994525 -0.2398643
N 0.49575624 1.5750321 -0.93778795
C 0.7063156 -0.39004976 0.8761308
N -0.3342487 -1.4292673 0.9424307
H 1.6857177 -0.8347562 0.6677248
H -0.7027062 1.0942804 -1.4623902
H -2.0725102 -1.7196127 -0.17123999
H 1.290493 2.177747 -0.80598044
H 0.778083 0.14629847 1.8297421
