11

N 0.29318112 0.30502614 2.0020835
C 0.113483444 0.10137745 0.7642355
C -0.6348521 0.8445396 -0.3413281
N -0.42525515 0.086087845 -1.5759876
C 0.29294878 -0.91608804 -1.2477304
N 0.64563394 -0.99323624 0.08900054
H -0.1718789 1.1622219 2.2982233
H -1.7053059 0.912872 -0.11924932
H -0.25889432 1.8680534 -0.45660478
H 0.62622017 -1.6815785 -1.9415262
H 1.2247188 -1.6892756 0.5288829
