11

N -0.45426342 1.01182688 0.27945523
C -0.46657282 0.29021151 1.53299023
C 0.01714754 0.17027477 -0.57179517
N 0.14721717 0.39969260 -1.91924023
C 0.33862221 -1.11284224 0.09124564
N 0.05810880 -1.05697036 1.33652000
H 0.14321186 0.80403989 2.28369524
H -1.48615990 0.22516972 1.93190321
H 0.06747199 1.36908879 -2.18766956
H 0.88364899 -0.09975409 -2.39476209
H 0.75156746 -2.00073752 -0.38234317
