10

N 1.4784303 0.49807325 0.92103285
C 0.22400805 0.6224136 0.3771635
O -0.44463584 1.6305445 0.44225138
N -0.2321563 -0.5474456 -0.23176317
C -1.4592471 -0.6396396 -0.8708008
O -1.8564342 -1.6696068 -1.3572843
H 1.8784218 1.3731622 1.2271277
H 2.127368 -0.16950302 0.53525364
H 0.29017216 -1.4099379 -0.16246189
H -2.0059266 0.3119391 -0.8805186
