10

N 1.3192255 -1.2844992 -0.29818544
C -1.1476905 1.1926847 0.24026637
O 0.49564564 -0.5555091 1.6982801
N -0.31302556 0.32489815 -0.27404362
C 0.50972825 -0.52555114 0.48583123
O -1.7025472 1.8174634 -0.7167478
H -1.345565 1.369636 1.2953464
H 1.1895092 -1.3201196 -1.2955651
H 1.8658874 -1.9948899 0.16010642
H -0.87116796 0.9758862 -1.2952884
