10

N -0.36868349 0.26108994 1.04161195
C 0.32225283 -0.82471327 0.51674837
O 0.70605762 -1.79562221 1.12072063
C 0.45478388 -0.45946257 -0.96248941
C -0.62397280 1.16922113 0.01838844
N -0.19445645 0.83446911 -1.13455324
H -1.15789669 2.09084063 0.23024333
H -0.62731275 0.35435036 2.01012959
H -0.01992251 -1.22098056 -1.59039887
H 1.50915040 -0.40919263 -1.25040071
