10

C 0.38336784 2.0567298 1.4989903
C 0.18243037 1.0937433 0.8033223
C -0.0582978 -0.042617626 -0.019176321
C -1.2040613 -0.7211452 -0.37322822
N -0.86734825 -1.7451522 -1.2004038
N 0.4145456 -1.742453 -1.3792765
N 0.9150407 -0.72446644 -0.6753222
H 0.5533237 2.9109702 2.1175938
H -2.2281983 -0.531869 -0.0864107
H 1.9091973 -0.5537397 -0.6860887
