10

O 0.03472386 -2.5530086 0.51920587
C -0.23876812 -1.9947971 -0.5071425
O -0.23679245 -0.6690185 -0.69816357
C 0.13448106 0.09579221 0.4616894
C 0.104075745 1.5142083 0.11161738
C 0.08900109 2.688427 -0.13967684
H -0.53093976 -2.4917293 -1.4450343
H -0.56368136 -0.11881104 1.2779361
H 1.1357172 -0.20361117 0.78923064
H 0.072182834 3.7325485 -0.36966228
