10

O 0.9249852 -0.15511313 -0.33920994
C -1.1850591 2.2865992 0.7795335
O 0.7857025 -2.383594 -0.6652088
C 1.3995506 -1.3529075 -0.7019878
C -0.82693404 1.1814734 0.47693858
C -0.4381822 -0.18051113 0.12262854
H -1.5026693 3.2718852 1.047547
H -1.0840145 -0.5780457 -0.66854405
H -0.51497966 -0.8477246 0.98707885
H 2.4416003 -1.2420614 -1.038776
