10

O -0.18921594 -2.56603125 0.34789727
C 0.79794769 -1.88477334 0.30462508
O 0.81695334 -0.55894013 0.12204212
C -0.48784208 0.03068120 -0.02635196
C -0.32111877 1.46775761 -0.22302469
C -0.22652591 2.65321920 -0.38689447
H -0.99851611 -0.42437749 -0.88263509
H -1.08238934 -0.17622237 0.86922075
H 1.83097570 -2.25021164 0.40897400
H -0.14026848 3.70889850 -0.53385312
