10

O 0.18850448 0.74172084 1.13576684
C 0.87885331 0.44510925 -0.09880653
C -0.97091079 0.04952686 1.07538250
C -0.08367132 -0.51531628 -0.83601970
N -1.23323547 -0.66508565 0.06594984
H 0.36462131 -1.49650635 -1.02420552
H 1.84097161 -0.00588922 0.15679066
H -0.42294627 -0.11663171 -1.79709156
H -1.60989371 0.17361028 1.94480820
H 1.04770695 1.38946187 -0.62257444
