10

O 0.17830734 0.17095405 1.3470825
C 0.8483458 0.4986545 0.10918419
C -0.07805626 -0.09486968 -0.97795075
C -0.94034874 -0.49605486 0.98551613
N -1.1902034 -0.7036478 -0.23633386
H 0.42061618 -0.859182 -1.5831504
H 0.9468745 1.5860976 0.060134694
H -0.46775317 0.6660647 -1.6612012
H 1.8420142 0.044512533 0.13710117
H -1.5597965 -0.8125291 1.8196177
