10

O -2.1977022 0.38843378 -0.11281238
C -0.9470122 0.1605922 -0.13548233
C 0.27025244 -0.35493577 -0.8839054
C 0.9752543 -0.031551775 0.46800914
N -0.34575465 0.4399935 0.98210657
H 0.22414538 -1.4108597 -1.157753
H -1.6577414 0.697766 1.1485275
H 1.7283381 0.76018816 0.42254984
H 1.3675493 -0.89790314 1.007667
H 0.5826708 0.24827686 -1.7389071
