11

C 1.05823272 -0.43300975 -1.73322093
N 1.38199426 0.62000043 -0.69175271
C 0.33017450 -0.06793409 -0.55451456
C -0.78138254 0.48401243 1.52792741
N -0.74671956 -0.19551050 0.24463138
H -0.31360254 1.46455706 1.40979748
H 1.68589898 -1.32586029 -1.74988226
H -0.24762767 -0.06773051 2.31099169
H 0.74534473 -0.07678751 -2.71583130
H -1.29127931 -1.02936371 0.11785994
H -1.82103355 0.62762709 1.83399393
