11

C 0.1630819 -0.44206405 -0.4462066
N 1.3735987 -0.80432165 -0.48900282
C 0.36156124 -1.5397997 -1.3452506
C -0.14181657 1.3130234 1.1980177
N -0.6385632 0.48489776 0.1130051
H 0.1068272 -2.5591588 -1.0495443
H -0.71925855 2.240383 1.2397434
H -0.19658151 0.8097671 2.1707654
H -1.6251205 0.3133679 0.040826857
H 0.90208673 1.5608168 0.9904005
H 0.41418478 -1.3769119 -2.4227545
