9

N -0.80475616 1.8474818 -0.12923339
C -0.10822667 0.8113012 -0.3503195
N -0.23734802 -0.30861756 0.4578779
C 0.47922766 -1.4738103 0.3015222
O 0.36432654 -2.4414675 1.0120535
H -0.5957888 2.5741463 -0.80609834
H 0.628818 0.68074226 -1.1501862
H -0.9046392 -0.26021338 1.2166694
H 1.1783864 -1.4295626 -0.5522852
