9

N -0.56717336 0.39700456 1.11920325
C -0.28997785 0.68065170 -0.29472928
N -0.08169769 -0.50922754 -1.10389757
C 0.92546559 -0.12691683 -0.16053219
O 0.59201168 -0.48189501 1.17537293
H -0.54811451 1.62995765 -0.74305334
H 1.97348852 -0.05515543 -0.41770680
H -1.38422502 -0.20839951 1.23857925
H -0.61977761 -1.32601937 -0.81323588
