10

O -2.38779 0.9563735 0.40700376
C -1.7683306 -0.058106672 0.6257198
C -0.3564678 -0.22534089 0.21121919
N 0.27602038 -1.3417509 0.46497503
O 1.5356209 -1.1758128 -0.029607283
C 1.6387012 0.04940911 -0.57745934
C 0.4705199 0.7185179 -0.46303794
H -2.2133183 -0.9237954 1.1488415
H 2.602847 0.2895915 -1.001899
H 0.2021974 1.7109147 -0.7857556
