10

O 1.4591888 -1.9517689 -0.56690186
C 0.84889615 -1.2185632 -1.2940644
C 0.098121226 0.2145341 0.6861082
N -0.7201007 0.70783025 -1.3456513
O -1.711472 1.7360349 0.73905426
C -0.04055578 -0.12251538 -0.7194355
C -0.90835255 1.0230707 1.3124998
H -0.9490667 0.882694 2.4109097
H 0.8797063 -1.2699134 -2.3952785
H 1.0436352 -0.0014027427 1.17276
