10

O 1.21610217 2.29867810 0.30241075
C -1.14712141 -1.04867865 0.90070057
C -0.82558528 -0.33564384 -0.37671240
N 0.39936731 -0.87013049 -1.13056227
O -0.28640930 -1.44402416 1.64989517
C 1.50651124 1.28277125 -0.27720955
C 0.50620276 0.22237254 -0.52984616
H -2.22536984 -1.17365003 1.11899231
H 2.51387904 1.06412410 -0.66887918
H -1.65757662 0.00418123 -0.98878912
