11

O -0.38103443 -0.307087 1.7379225
C 0.15046413 0.30342373 0.60013026
C 0.9298524 -0.537263 -0.42537203
C -0.7658301 0.6232914 -0.5932369
O 0.14784244 -0.0043156384 -1.5050265
H -1.7340256 0.100121036 -0.55155164
H -0.9023048 -1.0733384 1.4629058
H -0.9366976 1.6774223 -0.8380053
H 0.7827166 -1.6208256 -0.3010662
H 1.9992243 -0.33122626 -0.5472184
H 0.7097929 1.1697975 0.9605183
