9

O 1.3584088 1.3908814 -0.46166036
C 0.44791427 0.4483623 -0.16027895
N -0.16012499 0.34155855 1.066961
N -1.0036492 -0.5822536 1.2322304
N -0.7844401 -1.49266 -1.1196245
C -0.024407359 -0.52611333 -0.9918304
H 1.4963754 1.9216738 0.3320782
H -1.3435905 -0.50071824 2.1944828
H 0.01351366 -1.0007311 -2.0923584
