11

C 0.8692243 0.35002282 0.7011162
C 0.34816867 -0.2233335 -0.62463987
O -0.2367685 0.1339909 1.4975357
C -1.0120963 0.33172908 -0.66955227
O -0.3311232 -1.4380683 -0.26437545
H -0.45180437 -1.1709353 0.7468942
H 0.9547344 -0.33474144 -1.5230469
H -1.7277975 -0.084031425 -1.3758309
H 1.781654 -0.16790995 1.0478951
H -1.3097141 1.1873395 -0.07943262
H 1.1155221 1.4159375 0.5434367
