10

O -0.6039332 1.0317714 -0.86955935
C 0.24128056 0.52264917 0.9215844
N 2.720299 0.28699964 0.18117657
C -0.9364912 -0.16207205 -1.0880554
C 1.610771 0.38562903 0.49475586
N -0.6562216 -1.0296081 -0.17206208
H -0.85541016 -2.0154684 -0.29352742
H -0.06698105 1.5453384 1.0958306
H -1.4417342 -0.43759084 -2.0191143
H -0.0115791345 -0.12764841 1.748971
