10

O 1.6666882 -0.13188258 -1.4470952
C 1.1631823 0.7874062 -0.8453151
N 0.2779886 0.6458604 0.1867443
C -0.21555133 -0.65783113 0.5729181
C -1.651683 -0.8143381 0.28706247
N -2.7834349 -0.9132201 0.083902024
H 1.38254 1.848884 -1.0570024
H -0.14813614 1.4708483 0.58097994
H 0.35638928 -1.3912777 -0.0009882003
H -0.04798256 -0.8444491 1.638794
