9

O 0.8054097 1.0998418 -0.18462822
C -1.0226349 -0.12841013 0.101578556
C 1.2400986 -0.20275474 -0.08782849
O 2.389315 -0.54898226 -0.15007801
C -0.5648682 1.1160816 -0.06600694
N 0.10274388 -0.95464736 0.087152794
H 0.12646505 -1.9549496 0.19034621
H -2.0251005 -0.50234437 0.22973453
H -1.0514283 2.076165 -0.120270394
