10

N 0.054664124 -1.4950523 0.2578547
C -1.1938844 0.5994144 1.0705527
C -0.86379224 -0.30820867 -0.067120604
O -0.39355737 0.91581655 1.9198797
C 0.52593833 -0.52207804 -0.38957834
N 1.611954 -0.0648151 -1.0309931
H -2.2377038 0.974663 1.0859407
H -1.6472534 -0.48434705 -0.80185795
H 2.4809 -0.5426537 -0.8472511
H 1.6627349 0.927261 -1.1974263
