10

C 0.38369745 2.053237 1.4989405
C 0.18090138 1.0915399 0.8050972
C -0.05909696 -0.043272275 -0.019533835
C -1.2051396 -0.7214613 -0.3734821
N -0.86745703 -1.7424529 -1.1996943
N 0.4170989 -1.7382127 -1.3802047
N 0.91523725 -0.7239583 -0.67671305
H 0.5541056 2.9084196 2.1164484
H -2.228028 -0.5327418 -0.085741766
H 1.9086809 -0.5510971 -0.6851164
