10

C -0.048410673 -0.17498161 -1.3376375
C -1.445395 0.11079173 1.9179677
C 0.32717386 0.45321307 -0.03116747
C -0.63746613 0.2707144 1.049059
N 0.8516077 -0.9817409 -1.7336463
N 1.8915616 -0.9682264 -0.71449643
N 1.617583 -0.21122685 0.22157699
H 0.55448234 1.5184953 -0.16706768
H -0.9518775 0.017289016 -1.9027288
H -2.159259 -0.034327608 2.6981404
