10

C -1.70268302 1.26858497 1.12765441
C -0.70955168 0.71645368 0.75060292
C 0.49286396 0.04928022 0.26090759
C 0.55356579 -0.15365369 -1.22155298
N 0.70965792 -1.38258860 -1.50977306
N 0.74888320 -2.09910298 -0.24272067
N 0.61622844 -1.34361398 0.72474257
H 1.39207587 0.56932963 0.61577489
H -2.58917954 1.75462972 1.47002160
H 0.48813897 0.62068116 -1.97565732
