11

N -0.87673384 0.9902787 -1.3419862
C -0.28086922 0.2396769 -0.31058595
C 1.0163873 0.30297524 0.15648112
N 1.0785639 -0.55834824 1.2093083
N -0.0761622 -1.176225 1.4525065
C -0.9109174 -0.6992111 0.53925896
H -1.5595958 0.4537431 -1.8612218
H -0.19539511 1.3638468 -1.9875518
H 1.8719652 0.8791017 -0.16479829
H 1.8721975 -0.7597217 1.7926224
H -1.9394407 -1.0361165 0.5159669
