11

N -1.006932 -1.696804 -0.095428556
C 0.95865124 -0.16399394 -0.1870177
C -0.36607262 -0.45831817 0.026497642
N 1.0994457 1.1862835 -0.09966384
N -0.067379236 1.7608999 0.29893804
C -1.0412256 0.7575821 0.3791439
H 1.9501377 1.7233976 -0.08200387
H 1.8105412 -0.7989322 -0.40087765
H -1.9054153 -1.6759362 0.36762494
H -0.97414005 1.8466382 -0.44219592
H -0.457611 -2.4808166 0.23498307
