12

O -1.60247969 -1.62383403 -0.19686904
C -0.84075719 -1.05031807 0.54437406
C 1.09325350 0.50148033 0.20956411
O 1.58111637 -0.25649125 -0.86889876
C -0.42766617 0.38365180 0.28515893
O -0.96243338 0.80351758 -0.94089926
H -0.42961923 -1.53239976 1.45245503
H 1.55802792 0.10846086 1.12109320
H -0.80581642 0.99460974 1.12215792
H 1.35447999 1.56607552 0.12182648
H 1.05120222 0.01154099 -1.63381348
H -1.56930799 0.09370639 -1.21614897
