10

O -0.018411564 -1.3753328 -0.95874375
C -0.40434876 -0.38732374 -0.050673902
C 0.68565565 0.0089734215 0.9458652
O 0.63445425 1.3847088 0.4691941
C -0.2587344 1.0716289 -0.50576127
O -0.6906822 1.769025 -1.36796
H -0.65856844 -1.3965732 -1.6796046
H -1.3822749 -0.583247 0.41175228
H 1.6530057 -0.44488403 0.7292932
H 0.4399046 -0.046975248 2.0066388
