10

O 1.3439847 -1.3554027 -0.97062033
C 0.4682163 -0.29067433 -0.74349767
C -0.044520065 -0.32484138 0.67371416
O -0.8538844 0.7518423 1.1200978
C -1.1160535 1.6917304 0.23873566
O 0.17245331 -1.19916 1.4570291
H 1.201398 -2.011743 -0.27515566
H -0.40210745 -0.30451912 -1.4187437
H -1.7504457 2.380547 0.8434993
H 0.9809584 0.662221 -0.92505854
