9

N 0.42320244 0.43191753 -0.59559540
C 1.32599020 -0.50832129 -1.08660059
N -1.26590742 0.77104155 0.92242825
C -0.34123612 -0.01288402 0.34615328
O 2.12384883 -0.27599834 -1.96230009
H -1.36885455 1.72008300 0.60041766
H 1.27102282 -1.51959680 -0.61304610
H -1.87130281 0.42969673 1.64984522
H -0.29676340 -1.03593847 0.73869786
