9

N -0.8070762 1.844738 -0.1284662
C -0.110003725 0.81012183 -0.35143134
N -0.23774128 -0.30973965 0.45539233
C 0.48109725 -1.4724599 0.3003915
O 0.36546934 -2.4396873 1.0110741
H -0.59776175 2.5738256 -0.80103236
H 0.6269339 0.68008876 -1.1500349
H -0.90413374 -0.26170045 1.2170571
H 1.1832162 -1.425187 -0.55295014
