9

N 0.015679942 0.6059984 -0.59405977
C -0.45003211 -0.05237734 -1.7297598
N 0.50955224 0.34691334 1.6333733
C 0.08171251 -0.14059846 0.45824158
O -0.57409054 0.47826144 -2.8069942
H -0.19773145 -1.2009488 0.47490606
H 0.5551284 -0.22535253 2.4595633
H 0.77059734 1.31822 1.6915749
H -0.71081626 -1.1301159 -1.586845
