10

C -1.159931 0.061397884 -0.572531
C 0.3478912 0.1888609 -0.5090607
O 1.0001044 0.5393609 -1.4631783
C 0.9905996 -0.1522019 0.8218406
H -1.5005114 0.16716175 -1.604776
H -1.4892163 -0.9001897 -0.16456415
H -1.6172885 0.84795827 0.039169658
H 0.91746986 -1.2325464 0.9906176
H 2.0434546 0.13826446 0.815107
H 0.46742752 0.341934 1.6473756
