11

O 1.871785 -0.97476494 1.167031
C -0.8965788 0.77580714 -0.26877046
N 0.37218815 -1.0652926 -0.5788913
C -0.70393455 -0.2911595 -1.0456247
C 0.12661684 0.75131947 0.83415365
C 0.93594694 -0.5174067 0.55292434
H 0.7049728 -1.9187227 -0.9975331
H -0.3105876 0.6915248 1.8367646
H 0.79398173 1.6199055 0.83102685
H -1.6535797 1.5345364 -0.40065074
H -1.2408106 -0.605747 -1.9304299
