11

O 2.40965758 0.02926063 0.09165702
C 1.20391020 0.00344905 0.00445928
N 0.48644644 -0.34591702 -1.11901687
C 0.15373061 0.33363686 1.06835311
C -1.15553312 0.10970858 0.36149020
C -0.89826238 -0.27829624 -0.88842825
H 0.92365442 -0.61752736 -1.98471111
H 0.29359407 1.36355934 1.41407736
H 0.29864240 -0.31508671 1.93904831
H -2.13270631 0.24468548 0.80083819
H -1.58313421 -0.52747271 -1.68776741
