10

O -0.22585125 -0.8422258 1.4918702
C -0.0770162 1.32264 0.637373
C 0.19334744 -1.4398514 -1.5917133
N 0.10548879 0.8875169 -0.57492024
O 0.21861736 -2.5812373 -1.9599731
C 0.16286638 -0.35450807 -0.8933671
C -0.24582389 0.3565525 1.717796
H 0.34517586 -0.49346706 -2.3731968
H -0.38591477 0.7491343 2.7380877
H -0.090889774 2.395446 0.8080437
