10

O 0.20425889 1.009869 -0.36662093
C 0.6710705 -1.0226486 -1.0543517
C -1.0373807 0.50349045 1.6677926
N -0.042581294 -1.1454246 0.115441695
O -1.2460405 1.6562302 1.9590306
C -0.2887333 0.07817589 0.470742
C 0.81535965 0.29683313 -1.3376783
H 1.0245324 -1.8850732 -1.5989976
H -1.3880156 -0.35141042 2.2718456
H 1.28753 0.8599583 -2.127204
