9

N 0.59688619 -1.61299948 0.43326281
C 1.63482311 -1.56523746 -0.30739206
O -1.00166753 1.25226861 -1.29076095
C -0.50319690 0.64193429 -0.36803002
C 0.04490972 -0.72737412 -0.58547206
C 0.53682180 -1.50079297 -1.57243821
N -0.39653886 1.07860188 0.90656171
H -0.08820624 0.47052025 1.64652285
H -0.82383151 1.96307876 1.13774595
