9

N -0.90582216 0.59292996 1.0755185
C 2.4064853 0.2142975 -1.4741178
O -1.7191995 -1.3456936 0.1565982
C 0.29102606 -0.5246943 -0.636487
C -0.88017225 -0.47287846 0.23979153
C 1.1153808 -0.967348 -1.4915553
N 1.5556513 0.5514396 -0.66910005
H -1.6683083 0.64931786 1.7327113
H -0.19504124 1.3026296 1.0666407
