11

O 2.3678412 0.66491705 -0.26408446
C -1.0347403 -0.74577415 -0.53413445
O -1.4774057 0.55814224 0.31655604
C 1.4874748 -0.06435033 -0.6609777
C -0.31719854 0.6741825 1.1363344
C 0.23041898 -0.21225412 0.10718145
O -0.85743195 -0.5234098 -1.7550806
H -1.6227113 -1.5789341 -0.114610255
H 1.5723716 -0.7149619 -1.5438931
H 0.08480436 1.6911813 1.1704977
H -0.43342292 0.25126126 2.142211
