12

N 0.13362983 1.8414179 -0.7274314
C 0.8702828 -0.922676 0.47016472
C 0.10691395 -0.47100583 1.6391376
C -0.8632172 1.0599035 -0.75915307
N -0.4991825 -0.12865557 2.5593662
C 0.0025148322 -1.1003109 -0.7630153
N -0.76951015 -0.24265017 -1.2742914
H -0.15479529 2.7561889 -0.38002822
H 1.6363795 -0.1742011 0.25266722
H -1.8880696 1.3192091 -0.47894043
H 1.3612789 -1.8674577 0.718039
H 0.06377502 -2.0697618 -1.2565151
