12

N -0.9310306 2.0822651 1.7887983
C -0.85803956 1.2788997 0.96307755
C -0.7587148 0.22487955 -0.066264585
C 0.3962627 0.47178635 -1.0839792
N 1.4863093 -0.41207415 -0.6801366
C 1.0043639 -1.1968492 0.19643106
N -0.3447269 -1.0551399 0.5090813
H -1.7312037 0.13612303 -0.5608968
H 0.0715552 0.2123148 -2.0961728
H 0.7294484 1.5126166 -1.0934933
H 1.5753044 -1.9907372 0.6716743
H -0.63952845 -1.2640843 1.4518808
