11

O -2.35100232 -0.86359236 0.25311060
C -1.03107552 -0.73799982 0.05774253
C -0.53413741 0.52454506 -0.16413989
N 0.89896209 0.55767529 -0.39323861
C 1.81799018 -0.05742366 0.28686164
O -1.17627203 1.59073320 -0.25543029
H -0.47774292 -1.66711266 -0.05090584
H 1.51408557 -0.65653601 1.13914490
H 1.16699460 1.22108422 -1.11524482
H -2.68475360 0.05065775 0.23800941
H 2.85695151 0.03796842 0.00409055
