9

N 2.121099 -1.1334727 -0.97645897
C -0.24380974 -0.6038425 0.0037832228
C 1.086395 -0.90660465 -0.5145168
C -1.1461283 0.4283468 -0.59931964
N -0.29938468 0.70870703 0.68167573
H -0.8173197 0.76539063 1.5511534
H 0.5695155 1.2371639 0.6887088
H -0.6778716 -1.4253755 0.5702536
H -0.5924954 0.929687 -1.4052792
