9

N -2.1947153 0.30981255 -1.4351462
C -1.2768806 0.45248452 -0.7487185
C -0.103261925 0.62294835 0.08859841
C 0.47013226 -0.5779596 0.75605816
N 1.1726027 0.055556543 -0.34447607
H -0.032294545 1.5937502 0.5707345
H 0.92980295 -0.45725566 1.7329185
H -0.02696925 -1.5291969 0.5867348
H 1.0615836 -0.47014 -1.2067035
