11

N -0.8782185 0.99078184 -1.3403863
C -0.28029284 0.24018541 -0.31150246
C 1.0157462 0.30304286 0.15431556
N 1.0797106 -0.5578414 1.20794
N -0.07437468 -1.17677 1.4525689
C -0.90904844 -0.7004095 0.5395255
H -1.562428 0.45571503 -1.8573711
H -0.1979078 1.3641124 -1.9869041
H 1.8707184 0.8793764 -0.1685095
H 1.8728158 -0.759298 1.7934275
H -1.9367207 -1.038895 0.51689607
