11

N 2.3369434 -0.71674174 -0.25466985
C -0.72232443 1.0646021 -0.22353342
C -0.14939222 -0.2773767 -0.025592316
N -1.0661944 -1.3605902 0.103183344
N -0.030865515 2.1292996 -0.15216254
C 1.1606016 -0.4583238 -0.045867063
H -1.3902398 -1.4841516 1.0553108
H 2.9549456 -0.62649345 0.54999954
H -1.7998718 1.0241501 -0.4347446
H -0.67694855 -2.233538 -0.2286673
H -0.6166538 2.939164 -0.34325662
