11

N 0.96675146 0.46130848 -2.1423795
C 0.5828057 0.24147794 -0.9571809
C -0.79781187 -0.11901793 -0.6432966
C -1.1495686 -0.34170043 0.6255258
C -0.12474327 -0.20799369 1.6431371
N 1.0952183 0.107014745 1.4189842
O 1.4613241 0.33530647 0.10413713
H 1.958046 0.6981845 -2.1667113
H -1.4776915 -0.18565454 -1.4844917
H -2.1609333 -0.61385685 0.9122504
H -0.35339692 -0.37506872 2.6900253
