11

N -0.4294458 2.1293478 0.7519897
C 0.7237791 -1.3175337 0.32235727
C 0.24033614 -1.3614197 -1.0851544
C -0.24081628 1.0049987 0.20502657
C 0.3718547 -0.1195273 0.9429723
N -0.30662924 -0.4342856 -1.754688
O -0.56461227 0.7771153 -1.0990036
H 0.61384094 0.113413416 1.9839902
H 0.010367578 -1.3253945 1.3171109
H -0.82627666 2.7971096 0.08764078
H 0.40760183 -2.263824 -1.6722416
