11

N -1.54657695 -0.17944428 -1.65534522
C 1.61129720 0.38461195 -0.06856820
C -0.61928139 -0.05805604 -0.79732541
C -0.89198768 -0.28148476 0.61291800
C 1.43174075 0.20525555 1.26414848
N 0.05666371 -0.14423696 1.48290959
O 0.66394994 0.27649354 -1.09205406
H 2.55890077 0.65282521 -0.52076688
H -1.19240497 0.01122498 -2.59256142
H -1.89558686 -0.56082444 0.91213607
H -0.17671442 -0.30636478 2.45450898
