12

C -1.4696738 -1.3785484 -0.2632775
N 1.1705209 0.47567222 0.6040597
C 0.46173358 0.12323091 -0.61270285
N -0.1458627 -1.1767359 -0.48810154
C 0.96024173 1.615784 1.0967199
O -1.9733236 -2.453233 -0.025592173
H -2.0563035 -0.44281173 -0.334364
H 1.5027276 1.9179982 1.9937497
H 0.24685125 2.342356 0.6788858
H 1.1687659 0.09738927 -1.4529659
H -0.32263485 0.8580012 -0.8561323
H 0.45695728 -1.979103 -0.34027895
