10

N 0.85026016 -0.56801481 -0.83885887
C -1.10981502 -0.30066927 0.14435281
C -0.35245845 -1.12175566 -0.88940138
C 1.02012108 0.51522300 0.08564535
C -0.14237803 0.71166072 0.70237758
H -1.98357690 0.16068843 -0.33536105
H -1.51752466 -0.97064499 0.91206111
H 1.97671745 1.01093676 0.17900270
H 1.61145565 -0.89159115 -1.41969381
H -0.35280143 1.45416670 1.45987553
