10

N 1.0117073 0.38454634 -0.7601577
C -0.33464158 -0.16119865 0.9392001
C 0.8929893 0.27231422 0.66471946
C -0.055644743 0.053849533 -1.4722776
C -1.0412048 -0.33762723 -0.38056478
H 1.8677375 0.6984723 -1.1962222
H -1.3798083 -1.3677711 -0.54974496
H -0.74644595 -0.3519369 1.920746
H -1.9415526 0.28494152 -0.47121868
H 1.7268635 0.52441007 1.3055204
