11

N -1.0258709 0.6525058 -1.5524242
C 0.70403415 -1.2200462 0.7505256
C 0.1836877 0.8781315 0.62364143
N 0.8604776 0.021295553 1.4245768
C -0.27149117 0.17795241 -0.5021544
N 0.053181615 -1.1218241 -0.41378537
H 1.3077247 -2.0743454 1.0400882
H 0.084560044 -0.8972139 1.8489991
H 0.013264276 1.9064586 0.9134285
H -0.99978465 0.048974115 -2.3620033
H -0.9097834 1.6281112 -1.7708925
