11

N 0.05111366 -0.62447462 -0.95521370
C -1.37099980 -0.49611513 -0.72567187
C 0.59565139 0.05899867 -0.01272266
N 1.94686468 0.27701708 0.13167805
C -0.44322480 0.64357836 0.87022984
N -1.60887590 0.31948093 0.45931494
H -1.83166501 -1.47963620 -0.58599630
H -0.27592749 1.26649980 1.74483123
H 2.52385231 -0.34191933 -0.41965675
H 2.27906155 0.40209772 1.07722833
H -1.86585054 -0.02552738 -1.58402123
