11

N -0.9808428 -1.7047274 0.5992277
C -0.34998068 -0.53749263 0.15587959
C 0.96532124 -0.1624108 0.26809996
N 1.0429989 1.049921 -0.4027896
C -0.19200951 1.3249986 -0.87681586
N -1.0603235 0.39571002 -0.5545379
H -1.9850527 -1.6015884 0.5187916
H -0.7303785 -1.9729067 1.539518
H 1.828458 -0.6216086 0.7225852
H 1.8687142 1.6122355 -0.5203042
H -0.4069046 2.2178693 -1.4496546
