12

C -0.33674371 1.10045140 -0.37663225
N -0.10043502 -0.23665781 -0.10782956
C 0.87956010 -0.59709546 0.91181589
N 0.29565737 2.00835450 0.24709346
C -0.80353016 -1.21030028 -0.78796161
O -0.67444009 -2.39764887 -0.61599345
H -1.09809113 1.25169739 -1.15385019
H -0.00195904 2.92210966 -0.07367883
H 0.58507653 -0.17545067 1.87709172
H 0.90691360 -1.68529749 0.95723100
H 1.86099942 -0.19784581 0.64418188
H -1.51300765 -0.78231690 -1.52146826
