12

C 1.6574603 0.11770226 -0.28644684
N -1.5866724 -0.5553771 0.45004827
C -1.0692995 0.4986016 -0.75350755
N 0.3251388 0.24873105 0.22712336
C -0.3870779 -0.51474875 1.0037171
O -1.0515013 0.12510593 -1.8992128
H 2.0987797 1.1083575 -0.43378153
H 2.2781432 -0.44850945 0.4185905
H -0.05877463 -1.0009695 1.923174
H -2.44254 -0.650475 0.9873145
H -1.4027336 1.479562 -0.38757977
H 1.6390773 -0.4079805 -1.249439
