9

C 0.20580873 0.119741835 -0.35225692
C -0.6451486 0.41934696 0.5446931
C 1.08667 -0.19014046 -1.2840061
C -1.523767 0.72644895 1.4729651
O 1.7872087 -1.3435385 -1.3762001
H 1.3340629 0.4842199 -2.0960147
H 1.5461195 -1.924756 -0.64472413
H -2.017323 1.6926674 1.4807695
H -1.7736312 0.016010089 2.254774
