10

O 1.93621734 0.04080937 0.25219961
C 0.19269595 0.30024180 -1.28577693
C 0.58874035 -0.00976184 0.07438736
N -1.05734904 0.28686100 -1.62102849
N -0.21805904 -0.26902179 1.01333908
C -0.96912098 -0.80287254 1.87583480
N -2.15096962 0.27873764 -1.91470519
H 0.92297288 0.51845412 -2.05097117
H 2.14354970 -0.32407161 1.12440391
H -1.38867758 -0.01937624 2.53231676
