10

O 1.2514377 -1.3368825 0.6788643
C -1.7337794 -1.0532755 -0.9935672
C 0.89801925 0.9429307 0.29144847
N -0.749107 -0.71147275 -0.28182238
N -0.4156666 2.8159616 -0.5177278
C 0.386957 -0.41005293 0.18537778
N 0.19763541 1.9413404 -0.14194012
H 1.875754 1.1468807 0.7024015
H -2.6379027 -1.1189237 -0.3618124
H 0.9266526 -2.2165065 0.43877798
