10

O 1.4468349 -1.2705915 0.87090725
C 0.547597 -0.45677426 0.32203382
C 0.8829733 0.8941892 0.08573224
N 0.0060018157 1.7134547 -0.45193598
N -1.2080015 1.2601011 -0.77654886
C -1.4657186 -0.012582654 -0.535189
N -0.6397493 -0.9192272 0.008680209
H 1.0309172 -2.1446326 0.94854695
H 1.8585764 1.2938241 0.33767125
H -2.459431 -0.35776076 -0.809898
