10

O 1.4486804 -1.2711949 0.86949795
C 0.54686147 -0.45633146 0.32078773
C 0.88397557 0.8944427 0.08360914
N 0.0069892225 1.7133381 -0.45513538
N -1.2074065 1.2582995 -0.7780381
C -1.4664754 -0.012079863 -0.5334827
N -0.6400902 -0.9199663 0.01113735
H 1.0296248 -2.1436698 0.9516375
H 1.8593112 1.295727 0.33432257
H -2.4614704 -0.35856473 -0.8043362
