10

O 0.64503026 2.2113056 -0.09471082
C -0.7424755 0.5111907 -1.0624924
C 0.20660242 -1.1920418 0.6937777
N 0.6683844 0.086716376 0.754189
N -0.662849 -1.6169496 -0.15638974
C 0.2380647 1.071642 -0.1306358
N -1.1503459 -0.71637326 -1.0665463
H -1.1623238 1.1772482 -1.8089699
H 0.60896707 -1.8894824 1.4227594
H 1.3509455 0.35674393 1.4490188
