12

O 0.8737632 1.9622779 -1.2834334
N 1.0095958 1.4100887 -0.0034342064
C 0.3102664 0.36518252 0.10373601
C 0.13291243 -0.6074588 1.244145
N -0.5595798 -1.5135036 0.294006
C -0.58709437 -0.4788326 -0.7723798
H 1.4692777 2.7189138 -1.2334749
H -0.4912888 -0.21571249 2.0563939
H 1.0503029 -1.0255284 1.6699005
H -1.4820089 -1.7925472 0.60766786
H -1.5652397 -0.017172264 -0.95795906
H -0.16090706 -0.80570775 -1.725168
