11

N 0.3937424 0.3936017 -0.92864686
C 0.57369524 -0.9120443 -0.987956
C -0.42340285 -0.45003298 0.9764167
N 0.09937342 -1.4581107 0.14001822
C -0.25350967 0.7250502 0.26722422
N -0.4802696 2.0347364 0.13272424
H -0.8693296 -0.68672216 1.9285797
H 0.28546497 1.6335833 -1.0603893
H 1.0469185 -1.4680352 -1.7827066
H -0.5166151 2.6265903 0.94727546
H 0.14393236 -2.4386165 0.36746
