12

N -0.9232142 2.0787203 1.7907147
C -0.8555936 1.2747695 0.9646563
C -0.7609029 0.22392787 -0.06697364
C 0.39416137 0.47466418 -1.0838239
N 1.4864305 -0.41073412 -0.68155015
C 1.0048538 -1.1953862 0.19655864
N -0.3451195 -1.054073 0.50982356
H -1.7334689 0.13785782 -0.5602365
H 0.07365142 0.21361092 -2.0983295
H 0.72496474 1.5154979 -1.0916673
H 1.5742588 -1.9912639 0.6687206
H -0.64002186 -1.2675912 1.4521072
