10

N -0.83712004 0.05437264 -1.40140901
C -0.36085162 -0.23761872 -0.15869640
N -0.86904972 -1.13664828 0.59291100
O -0.08666084 -1.00961256 1.87092965
C 0.83509173 -0.11230330 1.86607285
C 0.75345957 0.52430854 0.50087641
H -1.46989780 -0.61870941 -1.80875275
H 1.71499219 0.43974913 -0.01644938
H 0.53005911 1.59356033 0.60186941
H -0.21002261 0.50290146 -2.04735215
