11

C 0.56550006 0.99810903 -0.74037205
N 0.01851432 -0.01235271 -0.00734052
C -1.20783588 -0.74133470 -0.27661225
N 1.82862952 0.73102730 0.98660244
C 0.85153314 -0.13057942 1.06564290
N 1.64519208 1.45166652 -0.16641081
H 0.70244417 -0.85000067 1.85835504
H 0.14371143 1.35313443 -1.66975343
H -2.06568046 -0.24040743 0.18072462
H -1.12341160 -1.75276394 0.12540448
H -1.35859676 -0.80649847 -1.35624038
