10

C 0.16461468 -0.4303512 0.46108505
O 0.96147823 -0.14860375 -0.47894958
C -0.41445142 1.1522281 -1.1859646
O -0.9682835 0.13857879 0.46754107
N 0.52978635 -1.2790192 1.4640387
H -1.4956545 1.1597017 -1.2998146
H 1.3347112 -1.8566928 1.2974749
H -0.014410635 2.0099504 -0.661621
H 0.111786835 0.8970624 -2.1023514
H -0.20957722 -1.6428546 2.0385613
