10

C 0.67853883 1.44677816 -0.26299819
O -0.19271069 0.52184535 0.39261488
C -0.15890419 -0.72997752 -0.11585462
O 0.55899672 -1.08213556 -1.02288014
N -1.06355740 -1.51992516 0.52741718
H 0.52424868 2.39768765 0.24779077
H 0.42112972 1.53592391 -1.32177533
H 1.71983032 1.12766308 -0.17362432
H -1.00959567 -2.50877050 0.34771496
H -1.47797645 -1.18908961 1.38159466
