10

C -0.35220876 -0.5989006 -0.29800498
O -0.11057311 0.5059563 0.44202748
C 1.1628716 1.1093159 0.19974518
O 0.431035 -1.0840821 -1.0810889
N -1.6077921 -1.0641173 -0.046415593
H 1.1958132 1.9819099 0.8527645
H 1.9720882 0.4166578 0.44367826
H 1.2540895 1.4119707 -0.84681815
H -2.1096153 -0.7055546 0.7475748
H -1.8357079 -1.9731557 -0.4134625
