10

C 0.59712106 1.3864698 -0.5831352
O -0.40333468 0.38495094 -0.38596416
C -0.031076971 -0.6238611 0.43019414
O 1.0501097 -0.71550024 0.96156174
N -1.0622932 -1.5051867 0.5835348
H 0.8546853 1.866297 0.3640973
H 0.14899819 2.1103208 -1.2657714
H 1.4981967 0.9529576 -1.0235816
H -1.8272579 -1.4627458 -0.07084201
H -0.82514834 -2.3937025 0.98990625
