11

N -0.5388263 -0.7977149 0.16830248
C -0.7335168 1.3589169 -0.0031499644
C 1.0193621 -0.74007547 -0.8977079
N -0.84873223 1.0982023 1.3044597
C -0.67227906 -0.22483838 1.3701798
N -0.5739738 0.26069412 -0.7466556
H -0.8056381 2.3462408 -0.44090295
H -0.68060726 -0.7994726 2.2872727
H 1.5797002 -1.2153562 -0.09502757
H 0.7174585 -1.4288116 -1.6781292
H 1.5370529 0.14221492 -1.2686411
