11

N -0.00329534 0.43952584 1.95551284
C -0.77415750 0.22004978 0.90698802
C 1.23881007 0.29302459 1.43201621
N 1.28309762 0.00194014 0.14756781
C -0.42549139 -0.33490517 -1.53931275
N -0.02656936 -0.04146304 -0.17750016
H -1.85521867 0.24092867 0.88954690
H 2.14333639 0.40394578 2.01748007
H -1.51530849 -0.30629298 -1.59965625
H -0.06719898 -1.32806888 -1.82006261
H 0.00199555 0.41131534 -2.21257963
