11

N -0.357822 0.4946351 1.9624325
C -0.15642717 0.18186145 0.6138529
C 0.5252544 -0.86948997 0.0526615
N 0.3462991 -0.7125256 -1.3137885
C -0.42006534 0.38671905 -1.4938967
N -0.7376192 0.9563866 -0.3554988
H -0.75094026 1.4226359 2.045911
H 0.4753443 0.41429266 2.5285423
H 1.0818826 -1.6940484 0.46694487
H 0.7110233 -1.3131967 -2.0319855
H -0.71692973 0.73272985 -2.4751756
