11

N -0.35862112 0.49185795 1.9622269
C -0.15654351 0.18356618 0.61390316
C 0.5239032 -0.8685384 0.05390676
N 0.34510517 -0.71125036 -1.3127998
C -0.41982433 0.3872595 -1.4952842
N -0.73687863 0.9580322 -0.35835093
H -0.7515256 1.420472 2.049517
H 0.47666073 0.4104914 2.5290647
H 1.0824091 -1.6920596 0.46895286
H 0.7103546 -1.3130742 -2.0333228
H -0.71503973 0.7332434 -2.4778132
