10

O -0.9501442 1.8546907 0.99666923
C -0.29581353 1.105617 0.023628267
C -0.13987625 -0.33674425 0.46693444
O -0.56689614 -0.7027533 1.5412116
C 0.5384595 -1.2351503 -0.45522058
C 1.1035091 -1.9480332 -1.2429253
H -1.1521959 1.2390456 1.7202666
H 0.7071361 1.5068277 -0.18901755
H -0.8476244 1.1101174 -0.9295899
H 1.6034458 -2.5936177 -1.9319568
