9

O 1.02303784 -0.01483673 -1.02910827
C -0.14995902 -2.02001176 -0.26967302
N -0.48484341 0.29412891 0.56395915
C -0.70443816 -1.08289567 0.48698804
C 0.43436371 0.91392852 -0.24110484
O 0.68952214 2.09278222 -0.26037808
H 1.65808714 0.44249943 -1.59805449
H -1.46381228 -1.50409337 1.14595869
H -1.00195788 0.87849837 1.20141270
