9

O 1.7482954 0.5398345 -1.6409216
C 0.89161193 0.35317397 -0.8183211
N 0.26645526 -0.8138025 -0.44295743
C -0.67401344 -0.55628365 0.55557597
C -0.61561435 0.7594213 0.7845667
O 0.32723498 1.3342154 -0.03651246
H 0.4832194 -1.7013896 -0.8612311
H -1.2830961 -1.3263113 1.0000349
H -1.144093 1.4111418 1.459766
