11

C -0.7736318 0.87749445 1.5460664
N 0.5830199 0.5170137 1.1753454
C 0.83557105 -0.053489678 0.09380762
O -0.14474751 -0.38746208 -0.8392101
C 0.25222737 -1.0252898 -1.9667375
O 1.378531 -1.3353689 -2.2379637
H -0.7883556 1.9514518 1.7534304
H -1.0170076 0.36210564 2.4798806
H -1.5375131 0.6443004 0.7958463
H 1.8403537 -0.33667254 -0.20550679
H -0.6284475 -1.2140828 -2.5949588
