10

C -0.05202882 -0.43130167 -1.32460178
N 1.32884553 -0.26138961 0.66445603
N 1.21427096 0.19900335 1.85468445
C -0.66141171 0.56236848 0.93772266
N -0.01055948 0.72239445 2.06551046
N 0.14774069 -0.04655276 0.05890195
H -1.08105066 -0.76403686 -1.46652662
H 0.16148776 0.40911510 -1.98837884
H 0.63315623 -1.25081466 -1.54185906
H -1.68045052 0.86121415 0.74009115
