10

C 0.25830302 -0.625626 -1.4352455
N 0.11307846 -0.06916662 -0.105575345
N -1.0271797 0.410065 0.36415273
C -0.66398734 0.78552926 1.5770202
N 0.64112955 0.5429517 1.8262031
N 1.1161488 0.0003655371 0.7452098
H -0.3811832 -1.5040786 -1.5365909
H 1.3044248 -0.9023575 -1.5522623
H -0.022964502 0.12518658 -2.1749997
H -1.3377699 1.2371306 2.2920883
