10

C 1.111714 0.49070132 -0.6830829
N -1.1962943 -0.23225626 -0.8891534
N -0.1231638 -0.008599764 -0.11054697
C -0.4445298 -0.3557481 1.1440647
N -2.113457 -0.6877757 -0.11905774
N -1.6854081 -0.7814158 1.156325
H 1.6024412 1.1551844 0.0292305
H 0.8568019 1.0438083 -1.5871699
H 1.7763176 -0.33778557 -0.9368568
H 0.21557811 -0.2861129 1.9962475
