15

N 0.47528185 1.87029487 -0.10109114
C -0.04248285 -0.90339174 1.20098665
O -0.91219062 0.15416272 0.83125804
N 0.31819945 -0.32116378 -1.04254618
C 0.36656136 -1.48971362 -0.15234672
C -0.39227140 0.74941650 -0.35448415
O -1.44605882 1.24535122 -1.09385626
H -0.58982015 -1.59401806 1.84550706
H -0.35686754 -2.24552556 -0.47976776
H 1.36086387 -1.94895366 -0.12991144
H 1.23322391 0.00768472 -1.33144338
H 0.83105775 -0.51850940 1.75210257
H -1.72337139 0.53398327 -1.68259186
H -0.07896844 2.71766127 -0.04600296
H 0.95684285 1.74272109 0.78418765
