15

N 0.18582708 1.8265703 -0.602681
C -0.49577162 0.5603007 -0.53050405
O -0.9396001 0.22818992 0.7822588
N 0.38190943 -0.533366 -0.92788225
C 0.59238034 -1.4033109 0.23796532
C 0.07471611 -0.54899687 1.3976088
O -1.5996783 0.67687684 -1.349583
H 0.86934894 0.09605432 1.8067591
H 0.6654778 2.0124722 0.27325866
H 1.2409554 -0.1576383 -1.3148466
H 1.6445937 -1.6836759 0.35748413
H -0.37206298 -1.1193023 2.2143643
H -0.49220347 2.5639155 -0.7603342
H -1.7546496 -0.19847547 -1.7228101
H -0.0012427298 -2.3196142 0.1389425
