15

N 0.8020836 0.13663821 -0.7527292
C -1.0566244 -1.2265152 -0.059319675
O -1.0258148 -0.3335614 0.99585
N 1.5037063 1.1930043 1.1940247
C 0.51057863 0.9209439 0.31682396
C -0.3713725 -0.56117165 -1.281074
O -0.4994602 1.7746842 0.27698734
H -1.0242841 0.18916415 -1.7374206
H 1.6045823 -0.46650195 -0.62718314
H 1.2128972 1.7720501 1.9675233
H -1.206202 1.0664963 0.55384487
H -0.051442236 -1.263448 -2.056571
H -0.51114947 -2.162849 0.17618363
H -2.0760984 -1.52122 -0.3559325
H 2.1885998 0.48228616 1.3889923
