10

C -0.06681125 0.12089029 0.05074582
C -0.9637899 2.4369085 -0.56108546
C 0.16402839 -0.9133967 0.93101126
C -0.7113182 1.4073607 0.21168353
N 0.98911697 -1.5595758 -0.95922464
N 0.80581814 -1.9091074 0.27498713
N 0.47365338 -0.34437203 -1.1107892
H 0.5191065 0.10410836 -2.013136
H -0.091309905 -0.99050033 1.9767454
H -1.1184943 1.6476843 1.1990621
