11

C -1.20222442 0.27576469 -0.50758111
N 0.17884123 0.22873726 -0.99919813
C 0.46416031 -0.54423889 0.13916898
O -1.70227205 1.47166928 -0.07448951
C 1.55705987 -1.04743828 0.69855944
O -0.84940125 -0.63967937 0.54829385
H 0.64875807 1.11940686 -1.12308623
H -1.94087270 -0.14374552 -1.19287089
H -1.16097565 1.79018582 0.66266753
H 1.48427252 -1.63161816 1.60602714
H 2.52265406 -0.87904383 0.24250888
