11

C -0.8055562 1.0558933 -0.123275936
N 0.54133254 0.6830694 -0.5683987
C 0.1678344 -0.6441074 -0.2965906
O -1.1469691 -0.34000877 -0.012421983
C 0.77828866 -1.8221753 -0.28894892
O -0.93833506 1.763691 1.038273
H -0.5663543 1.2450274 1.7666091
H 0.22781588 -2.7186892 -0.037345476
H -1.4039103 1.5724143 -0.8758652
H 1.3184583 1.0923799 -0.06045885
H 1.8273948 -1.8874944 -0.54157645
