12

O -0.9242639 -0.63267136 0.9843233
C -0.20122162 0.016673258 0.13613121
C 0.6235097 -0.75821376 -0.8796863
O -0.17996696 -1.7544382 -1.4534333
C 0.18071389 1.3233466 0.64710647
O -0.3783198 1.5878165 1.769471
H -0.82022977 0.6421239 1.9281448
H 1.4845002 -1.1811582 -0.3407699
H -0.71499556 -2.101039 -0.72337806
H -0.8286963 0.8920131 -0.5118802
H 0.75992876 2.080725 0.12706344
H 0.99904126 -0.115177974 -1.6830926
