10

N 0.97547466 1.4221964 0.55473584
C 0.25901568 0.31885648 0.099170186
N 0.24358767 -0.025278144 -1.1835409
N -0.47407576 -1.1429862 -1.1865596
N -0.9367938 -1.5505904 -0.027660731
C -0.48232096 -0.63696235 0.8251304
H 0.5037103 1.9487662 1.2762392
H 1.2536422 2.0260684 -0.20567957
H -0.6504456 -1.6552033 -2.035698
H -0.6917945 -0.70486677 1.8838631
