10

N 0.30358988 0.00053218193 0.38932875
C 0.5977903 -1.0460445 1.1941776
O 1.315894 -0.74002427 2.2477028
N -0.67247325 1.1001623 -1.3994802
C -0.4183176 -0.12114244 -0.8194662
O -0.730264 -1.1811424 -1.2990134
H 0.9740872 -1.8733355 2.017402
H 0.6984164 0.8954663 0.6749704
H -1.3018175 1.0461506 -2.1864045
H -0.7669052 1.9193779 -0.8192177
