10

N 1.4793774 0.49934226 0.92043555
C 0.22372614 0.62532157 0.37784797
O -0.4491521 1.6309102 0.4421291
N -0.23156503 -0.5479358 -0.23215352
C -1.4591806 -0.6412078 -0.86928296
O -1.8553993 -1.6706759 -1.3592081
H 1.8827145 1.3728276 1.226182
H 2.1275914 -0.16733488 0.5307167
H 0.2895595 -1.412083 -0.16370901
H -2.0076718 0.31083557 -0.87295765
