9

N 1.1075696 -0.98298967 -2.1863105
C 0.89591855 -0.5119652 -1.1532294
C 0.61543787 0.0516594 0.15482767
C -0.7083916 0.6922946 0.38029936
N -0.39311883 -0.57870823 1.0058993
H 1.4904296 0.42521083 0.67868805
H -0.76354873 1.5425982 1.0538372
H -1.4031298 0.7133394 -0.45517492
H -0.84116673 -1.3514392 0.5211635
