9

N 0.42796266 -0.027219653 -1.0725869
C 0.45912263 -0.577277 1.3021898
C 0.33112139 0.47538394 0.29957542
C -0.99794364 0.7289199 -0.31905937
N 0.5359101 -1.409578 2.1021967
H 0.99085975 1.3196344 0.49926412
H -0.3332503 0.65144205 -1.5561044
H 0.22999118 -1.0232619 -1.1401787
H -1.6437738 -0.13804397 -0.11529672
