9

N 1.05461764 -0.57455498 -2.30277088
C 0.57064284 -0.60712094 -1.25445160
C -0.10537073 -0.63834513 0.03850878
C -1.29357951 0.21074273 0.37475307
N 0.14646339 0.57576088 0.83725683
H 0.33811100 0.45843806 1.82599860
H 0.73327799 1.27476643 0.38826872
H -1.48005758 0.87840928 -0.47664194
H 0.03589490 -1.57809622 0.56907868
