9

N -0.4418619 0.93593687 -2.3819878
C 0.11608292 -0.55695975 -0.31046906
C -0.8021254 -0.6798671 0.86751133
C -0.164368 0.28390753 -1.4697815
N 0.45971152 0.23018448 0.8886121
H -1.6354126 0.01904288 0.7172335
H 0.795272 -1.3772362 -0.53506035
H 0.44127586 1.2393975 0.76331383
H 1.2314254 -0.09440639 1.460628
