9

N 0.022785962 1.6669803 1.1087681
C -1.2913731 0.39909738 -0.5328767
O 1.3833349 0.5956141 1.1374688
C 1.3767433 -0.5437294 0.5244548
O 0.4893047 -1.0503464 -0.17023703
C -0.8746929 1.3186096 0.33786088
N -1.9227767 -0.22922385 -1.350293
H 2.3289845 -1.083454 0.68422425
H -1.5123104 -1.073548 -1.7393702
