12

C -0.92878034 0.96785565 -1.58947880
C -0.57735790 0.49986437 -0.38970640
O -1.22671180 0.77858058 0.77197925
N 0.50414289 -0.33515834 -0.17245591
C 0.92036718 -0.86609455 1.03161551
N 1.93679463 -1.62872066 1.05236761
H 1.05275362 -0.60359971 -0.97491955
H -0.36411078 0.70561178 -2.47675075
H 2.12595965 -1.93587620 2.00064302
H -1.78773256 1.61913377 -1.70534359
H 0.31356273 -0.56299040 1.88714005
H -1.96888728 1.36139384 0.56490944
