12

C 0.5558116 -0.64765114 -1.8500891
C -0.08010169 -0.74336684 -0.47935858
O -0.60616374 -1.7455412 -0.04804193
N 0.013012057 0.4195679 0.27119642
C -0.47220418 0.5396886 1.5630515
N -0.34421554 1.642821 2.1772077
H 0.1336943 -1.4260283 -2.4843037
H 0.39867157 0.33411607 -2.310061
H 1.635674 -0.8161608 -1.762038
H 0.4500117 1.2446781 -0.11849464
H -0.93776757 -0.37442297 1.9327426
H -0.74642247 1.5722997 3.1081886
