11

C -0.42344975 1.0135803 0.31234324
C 0.30520433 -0.12185295 -0.39013994
O 1.0284935 0.13662015 -1.3284547
C 0.10636533 -1.5214653 0.13185711
O -0.07067805 2.2531855 -0.21131212
H -0.913242 -1.6731806 0.50216675
H 0.5376088 2.0616121 -0.9441526
H 0.34185547 -2.2517118 -0.6443308
H 0.79097944 -1.6801404 0.9738201
H -1.5058565 0.82634604 0.20911005
H -0.19728069 0.957007 1.3890929
