11

C 0.17248519 -0.26073736 -0.03380707
C -1.2037884 -0.05900221 -0.48069704
O 0.46917555 -1.5119357 -0.046735194
C 1.1516429 0.7596492 0.4253414
O -1.7588447 -1.1386712 -0.9013379
H -1.5013537 0.9529712 -0.79915553
H 0.6844554 1.7437998 0.5124202
H 1.9494776 0.81773454 -0.32363704
H 1.6040953 0.47139147 1.3774146
H -1.1487515 0.08680923 0.76278526
H -0.41859382 -1.8620089 -0.49259162
