11

N -2.6359255 0.98568773 -0.04434112
C 1.8883787 -0.09265414 1.9904631
C -0.11039066 0.91933846 -0.788637
O 0.3374722 -0.40518406 -0.94931436
C 0.3344121 -1.180675 0.21194388
C -1.5294253 0.970448 -0.3720644
N 1.1885145 -0.6268927 1.2140945
H -0.00033937447 1.3978333 -1.764275
H 0.49413428 1.4658524 -0.053599495
H 0.7070277 -2.1629372 -0.0792182
H -0.6738587 -1.2708169 0.63494813
