11

N -1.0568439 0.74966687 2.2053852
C -0.66948193 0.8969269 0.37413627
C 0.369294 -1.0072275 -1.5404646
O 0.6443374 0.79102224 0.021600464
C 1.0828091 -0.505956 -0.35073972
C -0.9799214 -0.3108471 1.6632278
N -0.21453376 -1.3778992 -2.4645782
H -0.8888818 1.9506153 0.51219934
H 2.147211 -0.4113601 -0.5733756
H -1.365005 0.43186122 -0.32796022
H 0.9310162 -1.2068028 0.48056936
