11

N -2.58555617 -1.00812598 0.46928798
C -1.83375206 -0.20378804 0.12315424
C -0.85021226 0.80451019 -0.33048477
O 0.20941855 0.21375620 -1.04389247
C 1.00066764 -0.67296069 -0.31069789
C 2.07779301 0.57747897 1.69876319
N 1.62560480 -0.02392792 0.79776124
H -1.33314410 1.49796429 -1.02246479
H -0.48978236 1.36472263 0.54167366
H 0.41274641 -1.51535773 0.07450854
H 1.76621608 -1.03427183 -0.99760881
