10

O -0.5007864 1.3359154 1.3070717
C -0.5809919 0.079429 -0.86015487
C 0.17821735 0.55862725 0.35812563
N -0.3548543 -1.1515012 -1.1013272
N 0.4736397 -1.5635499 -0.005710984
C 0.7836157 -0.7087639 0.9337327
H 1.0681661 1.0886668 -0.04533293
H 0.73085994 -2.5397334 -0.022795886
H -1.1982068 0.66972554 -1.5295784
H -0.59965956 2.231184 0.96597016
