10

O -0.11508092 1.83345521 0.60752930
C -0.74258477 -0.21191888 -0.69812982
C 0.91023185 -0.34563595 1.01993640
N 0.34760091 -1.46271224 0.63929793
N -0.66204584 -1.44322657 -0.37893342
C 0.28981046 0.62230089 0.02883269
H -1.44324256 0.11750338 -1.45845325
H 1.11009509 0.77283022 -0.70615273
H 0.52424379 -2.37566845 1.03261286
H -0.21902838 2.49307231 -0.08654004
