10

O -0.3790028 1.6410103 -1.2146523
C -0.1684036 0.6073299 -0.35501254
C 0.51743287 -0.57303923 -0.5357142
N 0.40763804 -1.2373846 0.6492277
N -0.2903717 -0.5704452 1.5676119
C -0.65012896 0.55654794 0.9721852
H -0.036970526 1.401452 -2.084255
H 1.0531087 -0.9813796 -1.378772
H 0.7864801 -2.1388817 0.88109297
H -1.2397825 1.2947901 1.4982882
