10

O 1.7624831 -0.3114883 0.94768494
C 0.29357776 -0.38601276 -1.0817453
C -0.63991857 0.26735717 0.9661096
N -1.6151222 0.23966897 0.10409787
N -1.0472009 -0.11452657 -1.0762154
C 0.5962076 -0.07197779 0.295899
H -0.80188274 0.5213199 2.005331
H 0.7677868 0.80120164 -0.6161166
H -1.6484308 -0.14375079 -1.8845662
H 2.3324997 -0.8017914 0.3395213
