9

O -0.24174819 -1.21181129 1.74219868
C -0.18667892 0.13235199 1.31877861
C 0.11773588 0.27924588 -0.11130045
C 0.34239548 0.33971981 -1.28804079
C 0.80694850 0.45861241 -3.74979965
N 0.58930498 0.40668353 -2.59075092
H -0.91185390 -1.67246940 1.22275270
H -1.12085851 0.66944675 1.54292619
H 0.60475473 0.59822027 1.91323544
