9

O 0.9688576 0.5373056 -1.7452459
C 1.032947 0.61083513 -0.34111115
C -0.81873184 -0.9232655 0.8323081
C -1.8043885 -1.8576967 1.4534786
C 0.03382305 -0.23255639 0.32829964
N -2.4363043 -0.8388125 1.5169511
H 0.9127271 1.6420945 0.028017858
H 2.033762 0.27721477 -0.05301036
H 0.07730808 0.7848812 -2.0196877
