9

O -0.24390195 -1.2143514 1.7579551
C -0.19035713 0.12801428 1.3336009
C 0.11734657 0.26406407 -0.10071219
C 0.3412905 0.33167252 -1.2820804
C 0.60034996 0.41318116 -2.6376567
N 0.81454295 0.48089713 -3.778555
H -0.91775495 -1.6756227 1.2441796
H 0.6012051 0.6009256 1.919702
H -1.122721 0.6712193 1.5435665
