10

N 0.48751274 1.2469997 0.6502451
C -0.26089686 -1.2279476 0.31657803
C -0.74187 -0.2751481 -0.49858576
C 0.22734895 -2.1708734 0.9534512
C 0.08925697 0.98372597 -0.6662795
H -1.7473159 -0.34805754 -0.9103958
H 0.2583824 -2.5015564 1.9763982
H -0.6079016 1.7554215 -1.0324842
H 1.4155413 1.6831825 0.6346542
H 0.879942 0.85425305 -1.4235815
