10

O -1.22795718 -1.41836325 0.38017405
C -0.73007081 -0.41255676 -0.48624318
C 0.07121787 -1.60100908 -0.18888526
C 0.57450339 1.59587383 0.00325585
N -0.43991166 0.78760085 0.16726501
H -1.23050550 1.13405704 0.70871789
H 0.16109714 -2.38455006 -0.93861337
H 0.50400658 2.61928374 0.35486117
H 0.87677648 -1.56859387 0.54777898
H 1.44084360 1.24825729 -0.54831170
