10

N 0.9175961 1.5935711 0.3115752
C -0.7779754 -1.4572788 -0.27608487
O -0.8187 0.7247442 1.5057802
N 0.010068996 -0.4090696 -0.33255076
C -0.031509113 0.66205174 0.5840418
O -0.48573172 -2.2284245 -1.2413421
H 0.91815555 2.433864 0.8636441
H -1.5533849 -1.6572727 0.46065003
H 1.479151 1.5412934 -0.52087855
H 0.3423295 -1.2034793 -1.3548352
