10

N 0.60542035 -0.80997795 1.5038626
C 0.013476253 0.1679116 0.7435224
O -0.403017 1.2144326 1.1903281
N -0.10208959 -0.17496762 -0.60513884
C -0.6410117 0.6752914 -1.5595937
O -0.76942366 0.34823203 -2.713956
H 0.83495104 -0.51666784 2.4417474
H 1.2519517 -1.4543111 1.0774091
H 0.13390285 -1.1020224 -0.93119895
H -0.9241601 1.6520793 -1.1469821
