12

O 0.74977249 0.82085871 -2.20388620
C 0.95479509 0.92717107 -0.79641127
C -0.21806795 0.55124914 0.03663010
C -1.14305525 -1.19589625 1.47188687
N -0.22123604 -0.59624737 0.71746158
H 0.26438523 0.00206281 -2.35670878
H -1.12381887 1.14386540 0.05506733
H 1.23428404 1.97611496 -0.63927908
H 1.82876721 0.31682053 -0.49852557
H -2.10837209 -0.72340323 1.58832831
H -0.87361865 -2.11924879 1.96111359
H 0.65616473 -1.10334726 0.66432314
