12

O 1.8667661 0.652607 -1.4772849
C -0.19194065 0.54346454 -0.14344378
C -1.7903836 -1.1054422 0.6897232
C 1.2523898 0.8899749 -0.21216811
N -0.5943526 -0.53906864 0.52474505
H 1.4141961 1.9587103 -0.025858559
H -2.6479146 -0.662336 0.20295595
H -1.8558991 -1.971122 1.3306795
H 1.8003924 0.3424899 0.5784293
H 1.535714 -0.1946485 -1.796573
H -0.9432921 1.0998427 -0.6891846
H 0.15432432 -1.0144719 1.01798
