12

O -0.5431029 0.61692584 -1.6980301
C 0.18755212 1.172609 -0.633837
C 0.36317763 0.16301964 0.48682848
C -0.7130731 -0.7886284 0.8352216
N 0.42070907 -1.2215097 0.017528187
H -0.23493282 -0.30000705 -1.7640883
H -0.36166683 2.0494435 -0.27151203
H 1.1818098 1.5140898 -0.96333367
H 1.0467108 0.4560022 1.2818949
H -1.6581715 -0.7367088 0.30421346
H -0.77266735 -1.1452922 1.861185
H 1.083655 -1.7799441 0.5439295
