11

N 0.18801203 1.32226155 -1.29832650
C 0.04267553 0.31027652 -0.34706975
C -0.46646597 0.30013091 0.93425710
C -0.40934860 -1.05952393 1.31864597
N 0.09803495 -1.82856291 0.37593442
N 0.36870893 -0.97322340 -0.63455585
H 1.12812845 1.40018263 -1.66684520
H 0.68807840 -1.33814205 -1.51636708
H -0.10506730 2.21794674 -0.93035342
H -0.81736479 1.14721458 1.50557984
H -0.71539169 -1.49856065 2.25910035
