9

O -0.9885672 1.7642994 -0.27439848
C 0.8663266 0.30807182 0.5294649
N -0.5612558 -0.62542313 -0.7248583
O -0.6941614 -1.497569 0.47772983
C -0.25244644 0.67748547 -0.109853506
C 0.5684324 -1.0860374 0.04658195
H 1.2463129 -1.8447505 -0.3330646
H 1.5692788 0.75119996 1.2179514
H -1.7539198 1.5527233 -0.8295533
