9

O -1.257644 0.03489275 -1.6144481
C -0.5109831 -0.12955032 -0.51510274
N -0.6761922 -1.146259 0.28661257
O 0.25770482 -0.9775513 1.2927536
C 0.9517933 0.14080037 1.0549706
C 0.5277978 0.7461528 -0.078816615
H -1.8839285 -0.703288 -1.6659929
H 1.7156123 0.3796674 1.7804571
H 0.87583953 1.6551352 -0.54043347
