11

C 0.5949093 0.73292214 2.2435079
C 0.30379662 0.16688815 0.92695296
C 0.07471121 -0.31572065 -0.1512899
C -0.14424454 -0.9688856 -1.4408463
O 0.3298437 -2.0515006 -1.7162532
N -0.9371232 -0.26334596 -2.2977235
H 0.46337518 -0.023423672 3.0213425
H -0.06698875 1.5750805 2.467314
H 1.6289784 1.0863249 2.2843444
H -1.0376142 -0.623785 -3.2338629
H -1.2096438 0.685446 -2.1034858
