11

C -1.1852175 -0.31829068 -1.9328026
C 0.80771977 -0.15281616 1.0541918
C -0.19221987 -0.6723181 0.14502075
C -0.055360254 -0.22794001 -1.2020861
O 1.9051672 -0.6797516 0.91215014
N 0.5068863 0.7579686 2.0250318
H 1.1684742 0.8253614 2.7858613
H 0.83580184 0.26855204 -1.5909777
H -0.46432036 0.9180292 2.2404816
H -1.2967472 0.15592688 -2.9039097
H -2.0301843 -0.87472147 -1.532961
