11

N -0.1443813 1.7568401 -0.84562665
C 1.0108908 -0.10013431 -0.41787398
C -0.50445026 -1.3216379 0.683151
O -1.1563234 -0.018139215 0.43254116
C -0.2057861 0.6399417 -0.19015737
O 0.5126005 -1.4490942 -0.24685468
H 0.9171415 1.208482 -1.2928386
H -0.80117464 2.5232534 -0.72675014
H -1.2672122 -2.0876584 0.5438218
H 1.77222 0.12831996 0.34386
H -0.13352504 -1.2801733 1.7167276
