11

N 0.90617595 -0.93883105 1.50595691
C -0.34825985 0.43984633 -1.50450053
C 0.20031016 -0.24486870 0.52554352
O 0.31992178 -0.60604647 -0.80822890
C -0.69343672 0.73279203 0.64574678
O -1.22684305 1.05583134 -0.58954137
H -0.92129159 0.02270900 -2.33268955
H 0.55826019 -1.88741272 1.60614899
H 0.39542139 1.17074434 -1.85235610
H -1.08685823 1.23992707 1.51226078
H 1.89659977 -0.98469143 1.29165945
