9

O 0.5475719 0.5523402 -1.5962389
C -1.3674341 -0.20325097 -0.3679489
N -1.7016752 0.36763245 0.6711767
N 0.9749995 -0.34201163 0.49191013
N 0.6690255 -0.07340021 1.6865662
C 0.13377418 -0.04161062 -0.48492774
H 1.3837732 1.0164423 -1.4359246
H 1.2828957 -0.6768094 2.2611296
H -1.9229304 -0.5993319 -1.2257423
