11

N -0.6311466 -0.71373737 -1.9374328
C -0.32500532 -0.27811435 -0.7986392
C 0.7078366 -0.8765318 0.13222586
O 0.43971124 -0.24519576 1.368913
C -0.13057847 0.9901195 1.0481719
O -0.84841496 0.8119147 -0.17010202
H -1.3337159 -0.12567025 -2.381129
H 0.5898706 -1.9558773 0.23873462
H 1.72095 -0.6514187 -0.2293188
H -0.8269952 1.2818981 1.8346599
H 0.6374878 1.7626132 0.89391625
