11

N -1.2536587 0.7729548 -1.4808387
C 0.65191716 -0.54330736 -0.36569634
C -1.2315159 1.7968847 -0.8789825
C -0.15970033 -0.8700962 0.8938511
C 0.14661229 0.8759082 -0.089892425
O -0.2987131 0.5485673 1.1632184
H -1.1410033 -1.3117632 0.6983298
H 0.38060918 -1.0240144 -1.3016126
H 0.34942812 -1.377207 1.7149228
H 1.7325729 -0.59480006 -0.19725998
H 0.82345164 1.7268733 -0.15603945
