11

N 1.177561 -1.4347037 -0.34400964
C 2.2250652 -1.9050226 -0.5836778
C -0.03218906 0.43310562 0.80110204
C -0.08726483 -0.85396695 -0.039722603
C -0.6132892 1.0945761 -0.45448032
O -0.65060973 -0.16954587 -1.14466
H -0.73635113 -1.6581992 0.32085672
H -1.6148806 1.5219232 -0.34934673
H 0.9752979 0.74239707 1.08243
H -0.6837949 0.42026258 1.6763762
H 0.040455177 1.8091738 -0.964868
