11

N 1.29401369 -1.30630361 0.42716110
C 0.08695153 0.87725192 0.23075887
C 0.05856767 -0.61705392 0.59520319
C -0.88934766 0.46709605 -0.87843890
C 2.31829447 -1.86088883 0.28863366
O -0.86830049 -0.90415005 -0.43686637
H -0.33035154 -0.88239639 1.58336067
H -1.89487531 0.89286990 -0.81139614
H -0.31977661 1.53100922 1.00408517
H -0.51645441 0.56245897 -1.90332119
H 1.06127845 1.24010706 -0.09918020
