11

N 1.3658223 -0.66383696 2.5933292
C 0.6570435 -0.6719185 1.6823486
C -0.24396013 -0.6538976 0.5154401
C -0.5325414 0.7422323 -0.07505565
C 0.2440209 0.21962583 -1.2905152
O 0.40746775 -1.076552 -0.6828542
H -1.120843 -1.2690669 0.7449734
H -1.5922594 0.93261164 -0.24650887
H -0.08290925 1.579504 0.46099398
H -0.3136226 0.15901831 -2.2285705
H 1.2117811 0.7022802 -1.473581
