9

N 0.60176694 2.3701177 1.060795
C -0.92327344 0.5257599 0.08733199
O -1.0445937 -1.6728839 -0.82631993
C -2.2208095 0.77544767 0.017465865
C -0.3359435 -0.80209863 -0.374468
C -0.09902118 1.5597696 0.6288462
N 1.0028218 -0.8806723 -0.22797807
H 1.4512979 -1.7410042 -0.5133484
H 1.567755 -0.13443598 0.1476755
