10

N -0.3983028 0.37752217 1.2161683
C 0.894175 0.25967523 0.84116834
C -1.1472204 -0.04640687 0.060508043
C -0.2620005 -0.47724798 -0.94070303
C 1.0238628 -0.29016542 -0.4346076
H -2.2078338 -0.23284349 0.17044726
H 1.9546304 -0.49857187 -0.94783896
H -0.99366605 1.176876 0.4390156
H 1.6769181 0.60775924 1.502679
H -0.54056275 -0.87659705 -1.906837
