10

C 0.24720611 1.08724597 -0.49204178
C -0.72482603 -1.02007003 -0.35992859
N -0.36410917 -0.00414743 -1.18903434
N 0.79425862 0.41457255 -1.68288614
C -0.14665694 -0.71416220 0.89207516
C 0.53656683 0.48480987 0.81291850
H -0.12844981 2.10118247 -0.60919702
H -1.13647968 -1.94690895 -0.72706350
H -0.16376353 -1.37755952 1.74798434
H 1.08625362 0.97503694 1.60717327
