10

C -0.22280598 0.9746168 -0.36965218
C -0.6299349 -0.039559264 -1.2361906
N -0.45838502 -1.334322 -0.9882306
N 0.13108228 -1.7121646 0.13921759
C 0.5415932 -0.789071 1.0042702
C 0.3904671 0.5822039 0.803426
H -0.3873025 2.0182078 -0.6159823
H -1.1211386 0.18561144 -2.1804974
H 1.0148572 -1.1801918 1.902778
H 0.74156725 1.2946684 1.5408612
