10

O 0.13311833 -1.7943094 -1.210796
C 1.561991 2.382904 -0.16593598
N -0.72953695 -0.1216649 0.07769793
C -0.7854866 -1.0701492 -0.9110279
C 0.503261 0.18715039 0.7467913
N 1.1006784 1.3844182 0.24361603
H -1.7821139 -1.1200291 -1.3864598
H -1.5220125 0.48804602 0.21181226
H 1.1833904 -0.6505224 0.57675517
H 0.3367109 0.31415606 1.817547
