10

O 0.51468956 -1.66892408 -1.28572186
C 0.47086246 2.78380419 -0.41749866
N 0.52512332 1.70581634 0.04349377
C 0.55320693 0.39720761 0.61820901
C -0.51314561 -1.32833981 -0.75124909
N -0.59172435 -0.38229638 0.23827545
H 1.43922811 -0.13168467 0.25984689
H -1.50137697 -0.10827847 0.57768352
H -1.49864696 -1.77042799 -0.98605669
H 0.60178396 0.50312333 1.70301742
