11

C -2.10494027 -0.60056609 -0.66628509
C 1.10644535 -0.04119462 -0.00790730
O 1.39356051 -0.93499409 1.03931063
C -0.22139564 0.66073987 0.20298201
O -1.24732444 -0.36224038 0.28198265
H -1.89990234 0.16962221 -1.47072629
H -0.46559494 1.35044404 -0.61711196
H 0.67797415 -1.58070295 1.07308445
H 1.09693687 -0.54372609 -0.98712605
H -0.24317316 1.17904511 1.16453559
H 1.90741398 0.70357313 -0.01273880
