10

N -0.53645575 0.22291332 -1.217928
C 0.3132022 0.121877104 -0.08743937
N -1.6794194 -0.26675105 -1.0771267
N 1.6879182 0.42890915 -0.22263418
N -0.6160447 -0.36668822 2.2218864
C -0.16453297 -0.22627287 1.103276
H 2.0495722 0.06374546 -1.0952865
H 1.843436 1.43225 -0.21596348
H -2.172971 -0.08412674 -1.9589605
H -0.7247049 -1.3258563 2.5501769
