10

N -0.5967989 -0.42419675 0.009916476
C -1.3442146 0.2957881 -0.8779924
O -0.8880104 0.9780931 -1.7659781
C 0.84656024 -0.31484973 0.026343057
C 1.3325802 0.35780933 1.24078
N 1.700081 0.8627066 2.2109442
H 1.3192673 -1.2995343 -0.046358824
H -2.4296687 0.1671241 -0.7132885
H 1.1265637 0.26878208 -0.8534716
H -1.0663602 -0.8917227 0.76910585
