11

C -0.09914815 -1.0717392 -0.41395667
C -0.19108242 0.21096522 0.35779083
C -1.1231256 1.6166903 0.092067145
O 0.067014106 0.12256027 1.6897205
C 0.8671899 0.03921336 -0.69242465
N -1.9301932 0.75731736 -0.105607346
H 0.7508364 0.59690666 -1.6163255
H 0.38032395 0.9899835 1.9895326
H -0.8624627 -1.2944474 -1.147847
H 1.884335 -0.05034154 -0.32115698
H 0.25631267 -1.9171085 0.1682071
