11

C 1.67955739 1.31595174 -1.77745565
C 0.39902905 -0.14891454 -0.07302695
C -0.37655060 0.50516159 1.01527443
O 1.08281466 -1.29477596 0.27041767
C -1.10112715 -0.14653636 -0.13899328
N 1.08642138 0.67077831 -0.99435322
H -1.57383168 0.49730760 -0.87271027
H -0.35765403 1.58866327 1.06412163
H -1.59079369 -1.09961648 0.03812570
H 1.12120347 -1.87604121 -0.50050536
H -0.36906883 -0.01197794 1.96910519
