11

N -0.004974414 -1.4879174 -1.0244398
C 0.26416382 -0.30599636 -1.5967296
C 0.14496073 0.7436708 -0.6988532
C -0.11865602 0.12503512 0.5309143
N -0.25775495 -1.2013638 0.37768275
N -0.20713605 0.6928617 1.7893623
H -0.71095335 0.11487592 2.4468539
H 0.51651025 -0.26949605 -2.6481643
H 0.23761833 1.8017701 -0.8996736
H -0.5393437 1.6459525 1.7907368
H 0.6755653 -1.8593923 -0.06768956
