11

N 0.101406075 0.71139455 -1.7214539
C -0.0052795024 0.16753277 -0.43756834
C 0.8887918 -0.5052716 0.36824226
C 0.13139014 -0.8595455 1.5074157
N -1.1170132 -0.44032976 1.4323173
N -1.1818457 0.18415141 0.23600836
H 1.0480318 0.63294405 -2.0732634
H -0.19223389 1.678525 -1.7734066
H 1.9312066 -0.7016839 0.16741894
H 0.46324793 -1.3999767 2.3846784
H -2.0677023 0.5322598 -0.090388335
