11

N -1.1693144 1.079216 0.14331636
C -1.1955155 0.29502642 -0.95380443
C -0.08219458 -0.5100707 -0.88761675
C 0.5558775 -0.11992379 0.31938168
N 1.7694045 -0.58807695 0.8186985
N -0.111797936 0.83624065 0.942999
H 1.8945832 -1.5843755 0.70720243
H 0.241802 -1.256252 -1.5970542
H -1.8268888 1.7902492 0.41461492
H -1.9839188 0.36722443 -1.688641
H 1.9079627 -0.30925795 1.7809033
