10

N 0.9742075 1.4216908 0.55349064
C 0.2588256 0.3175744 0.1007675
N 0.24569348 -0.024578465 -1.1813883
N -0.47249982 -1.1417027 -1.1858208
N -0.93696964 -1.5511299 -0.029021293
C -0.4834899 -0.63777536 0.8251808
H 0.50404745 1.9455647 1.2784306
H 1.2508833 2.0249612 -0.20793469
H -0.64582086 -1.6508929 -2.0368347
H -0.6948771 -0.7037114 1.8831303
