9

O 0.5265262 -1.6967889 0.11807012
C 0.19769464 -0.4133524 0.2128071
N -1.0444199 -0.030301595 0.444511
N -1.5529438 0.92334527 -0.2110483
N 0.8952394 1.2548991 -1.0406688
C 1.3040751 0.55324155 -0.11311193
H 2.2952118 0.40787116 0.33239704
H -2.3657815 1.2331239 0.34228528
H -0.25560188 -2.232038 -0.08524137
