9

N 0.18425016 -0.28013945 0.8801435
C 0.4711411 -0.7956092 -0.31023106
C -0.71072227 1.1626774 -0.66297984
N -0.052032936 0.049646154 -1.208203
C -0.5310561 0.9055667 0.6860603
H 0.023263296 -0.10004869 -2.2025099
H 1.0151867 -1.7106223 -0.49196252
H 0.45054483 -0.69904923 1.7580314
H -0.8505748 1.4675785 1.5516509
