9

N -0.1185768 -0.847258 0.45250577
C 0.35870424 0.37731177 0.85900503
C 0.27538797 1.1781423 -0.24736762
N -0.23762475 0.48062852 -1.3132974
C -0.46256936 -0.7281582 -0.859794
H -0.20071022 -1.6766707 1.0163274
H 0.70140976 0.55079436 1.8674102
H 0.5539518 2.2185824 -0.34572688
H -0.8699726 -1.5533731 -1.4290626
