9

N 0.28349723 0.08244535 0.89437738
C 0.36829904 1.19753299 0.05496175
C -0.08930651 0.89791066 -1.21748422
N -0.43317304 -0.45076926 -1.03638548
C -0.21772742 -0.93031782 0.19574181
H -0.40518281 -1.92700147 0.56687938
H 0.54708592 0.02484994 1.86612282
H 0.75838253 2.12172925 0.45607608
H -0.81187489 -1.01638028 -1.78028962
