9

N -0.06780573 -0.21746211 0.41141653
C -0.21656896 0.20357312 1.7314885
N 0.24116644 0.08458914 -1.77539
C 0.117724985 0.6832315 -0.58977544
O -0.3825409 -0.5559343 2.6509511
H 0.37557837 0.6586188 -2.5921035
H 0.2035604 -0.9210365 -1.9414651
H -0.10865061 -1.234592 0.29059714
H -0.162464 1.2990123 1.8142805
