12

N -0.43743777 -1.6676581 2.328852
C -0.34608582 -0.7716189 1.6063967
C -0.25333127 0.36182922 0.66263026
C 1.1520755 0.48113343 -0.008694509
N 1.0073366 -0.07538509 -1.3513994
C -0.2408382 -0.24384218 -1.5367368
N -1.0984149 0.1491857 -0.51196694
H -0.53459483 1.276174 1.1931825
H 1.4473405 1.5320994 -0.08097401
H 1.9269514 -0.050466202 0.5487999
H -0.6642418 -0.62614053 -2.4610233
H -1.9587597 -0.36531052 -0.38906625
