12

N -1.0017724 0.16178936 -0.82396394
C -0.54032296 -1.2127217 -0.4239822
C 0.20980407 -0.6235742 0.7434558
C -0.8228011 0.64644045 0.5857738
N 1.2279917 0.1763526 0.0065074544
C 0.17644842 1.0192741 -0.5866171
N -0.579297 1.8828616 0.77314156
H 0.5335489 -1.1319692 1.6466178
H 0.41172788 1.8387067 -1.2528135
H 0.06896329 -1.7076167 -1.1823839
H 1.7333094 0.756992 0.6738047
H -1.4176003 -1.8065354 -0.15954089
