11

N -0.7237221 0.25551063 1.1509129
C 0.38563898 -0.38289505 -0.75201917
C 0.17203708 0.7734572 0.21105579
N 0.6300055 1.9529028 0.26131952
C -1.1277337 -1.0329953 0.9609097
N -0.47407746 -1.3970217 -0.15552999
H -1.0459629 0.8182766 1.9222186
H 1.2624054 2.1425815 -0.51191044
H 0.072855875 -0.11855018 -1.7684115
H 1.436382 -0.6941253 -0.77365017
H -0.5878286 -2.3171408 -0.544895
