11

C -1.5395486 0.07736542 -0.2875221
C 0.38840055 0.0037748565 -0.73372304
N -0.5594122 -0.13532798 -1.4518836
C -1.3083743 -0.5911503 0.895078
C 1.7009819 0.37895158 -0.24319117
O -0.20804796 -1.1220614 1.1989237
H -2.1759858 -0.67209536 1.5699122
H 2.4310024 -0.30778015 -0.68448335
H 1.7019991 0.24914558 0.8415736
H -2.3664296 0.71197563 -0.56937826
H 1.935414 1.4072019 -0.535306
