11

N 1.5293281 0.50737137 -0.10779199
C 1.080539 -0.37311837 -0.89923555
O -1.2780861 0.7084603 2.1008976
C -1.0791048 0.17972954 -0.21632381
C -0.8469915 -0.04295936 1.2648134
O -0.22840878 -0.631342 -1.0215682
H -0.31257287 -0.98014635 1.5197556
H -2.0956485 -0.13747308 -0.46985105
H 2.5428257 0.5544333 -0.15637882
H 1.6447705 -1.026617 -1.5699642
H -0.95665085 1.2416618 -0.44435328
