11

N 1.6173217 -0.06521084 -0.29417005
C 0.47692192 0.1787198 -0.9918522
O 0.37017968 0.14112972 -2.2008934
C -0.7168832 0.46856567 -0.11296283
C -1.1597925 -0.5201859 0.874283
O -0.46525347 0.6550549 1.2746123
H 1.6569655 0.18715063 0.68090147
H 2.4740162 -0.18255855 -0.8145281
H -1.446307 1.1427836 -0.55742776
H -2.210464 -0.5590228 1.1578054
H -0.59670496 -1.4464264 0.9842322
