10

C 2.3697276 -1.1419109 0.36558747
C 1.3196574 -0.57569623 0.24107459
C 0.05498286 0.071205534 0.08453108
C -1.2234457 -0.47006825 0.17851016
N -2.1213558 0.4697302 -0.120216
N -1.4696815 1.6015308 -0.29035148
N -0.07497392 1.3824899 -0.17195497
H 3.309373 -1.6367017 0.47985923
H -0.6500939 1.7784947 -1.2033027
H -1.5141906 -1.4790741 0.43626258
