10

C 0.38534898 2.0531857 1.5002613
C 0.18072946 1.0923308 0.804383
C -0.05857594 -0.042482443 -0.019808557
C -1.2061969 -0.71968955 -0.37374482
N -0.8695968 -1.7418997 -1.2003472
N 0.41527268 -1.7402997 -1.3801763
N 0.91487473 -0.725404 -0.6773719
H 0.5583437 2.9070244 2.1189346
H -2.2283778 -0.5315645 -0.0848072
H 1.908178 -0.5512004 -0.6873228
