10

C -0.006879057 -0.047788996 0.05890235
C 1.0152574 0.7256033 -0.56128883
C -0.011124059 -0.8994186 1.1408685
C 1.8760431 1.3795813 -1.0863979
N -1.2659279 -1.3833829 1.3086927
N -2.039442 -0.88078296 0.39528057
N -1.2981757 -0.07958649 -0.3610402
H 0.80494213 -1.1815829 1.787615
H 2.6463761 1.9583182 -1.5480773
H -1.7210699 0.4090401 -1.1345549
