9

O -1.3232249 -0.66053206 0.8814584
C -0.59825075 0.2985298 0.15541525
C 0.86092037 0.19675033 0.34161636
C 2.0446286 0.077565454 0.50911397
C -0.92662215 0.23199867 -1.2939289
N -1.203372 0.14994952 -2.4110427
H -1.0041504 -1.5373936 0.6339794
H -0.94876915 1.2671578 0.52710444
H 3.0988402 -0.024025992 0.65628386
