9

O -1.37263233 0.28768766 0.97455248
C -0.56962040 -0.38697979 0.06004049
C 0.87360941 -0.16948162 0.27892871
C 2.03668740 0.02599874 0.49843929
C -1.21009114 0.30066843 -2.37842390
N -0.90811092 -0.02511727 -1.29008655
H -0.80869048 -1.44658345 0.18235125
H -1.11599278 1.22013350 0.98475670
H 3.07484106 0.19367372 0.68944161
