9

O 1.2689134 0.9247576 0.68088657
C -0.97493315 -1.7464896 0.5570022
C -0.31374976 -0.8223433 0.16889912
C -0.7558674 1.4887099 -0.69611317
C 0.5474552 0.26978534 -0.27219906
N -0.118820176 1.3207563 -1.6935002
H 1.2469946 -0.082543686 -1.0274872
H 0.66585016 1.21412 1.377477
H -1.565843 -2.5667527 0.90503466
