11

N -0.978448 -1.7043883 0.59687936
C -0.3469384 -0.53847885 0.15516992
C 0.9679469 -0.16017763 0.26888195
N 1.0410013 1.0517322 -0.4009125
C -0.19471735 1.323682 -0.87617505
N -1.0603871 0.3911849 -0.556029
H -1.9810424 -1.6061243 0.5127338
H -0.7313534 -1.9725125 1.5386677
H 1.8319765 -0.6179155 0.7229971
H 1.8652407 1.6170952 -0.5135502
H -0.41327882 2.2159028 -1.448663
