11

N -1.35589270 -1.53225768 0.85678611
C -0.71182207 -0.59818657 0.30352803
C 0.80309786 -0.42963117 0.43592371
N 0.99316759 0.84988132 -0.23299956
C -0.20227338 1.18229429 -0.80158385
N -1.22082526 0.44140118 -0.51283760
H -2.34562559 -1.44399904 0.63514997
H 1.33044517 -1.24206301 -0.07515330
H 1.11094979 -0.40202778 1.48565850
H 1.86750408 1.11827754 -0.65293639
H -0.26872557 2.05631094 -1.44153554
