11

N -1.1346465 -0.32991594 1.8772517
C 0.8471057 -0.35543174 0.41911668
C -0.6229473 -0.08866286 0.7488142
N 0.9393496 0.23715287 -0.90793705
C -0.3303008 0.5671124 -1.2847396
N -1.2598401 0.45335186 -0.3943688
H 1.6306747 -0.046316862 -1.5821494
H -2.1193082 -0.07134283 1.8692114
H -0.51458263 0.93535256 -2.2888803
H 1.0526363 -1.4310001 0.4032969
H 1.511859 0.12970074 1.1403846
