11

N 0.45835963 0.34314904 -2.9262996
C 0.35760704 0.63279116 -1.8135716
C 0.20884778 0.96751267 -0.39302316
C -0.59846735 -0.08812277 0.3420715
C 0.05987788 -1.1822035 1.053106
O -0.4747583 -0.062629774 1.7502325
H -0.27897534 1.9428427 -0.3065518
H 1.1991408 1.0551444 0.06749953
H -1.6132597 -0.23749073 -0.025068708
H -0.464963 -2.1243973 1.2064677
H 1.1465905 -1.2465961 1.0451375
