13

C -1.3495262 -0.18199128 -0.35603946
C -0.15275052 -0.98230976 0.15087385
O -2.3321776 -0.7307971 -0.8192254
C 1.2142111 -0.3453438 -0.02927832
O 1.3206587 0.78772604 0.8347172
N -1.229485 1.164783 -0.23671278
H -0.18104294 -1.9478824 -0.35877073
H -0.3099319 -1.1713864 1.2202392
H -2.0282636 1.7353413 -0.46591315
H -0.4451626 1.5497867 0.2734626
H 1.9922127 -1.078037 0.22246811
H 1.3547626 -0.045141935 -1.0776719
H 2.1464956 1.2452528 0.6418507
