10

N -0.106159106 0.7162315 0.011434077
C 0.044989534 -1.261639 -1.368911
O 0.7882975 0.2429903 2.0561838
C 0.61149675 1.0100106 1.1395571
C -0.6194699 -0.6161277 -0.22584912
N 0.5564029 -1.7440488 -2.282546
H 0.99549025 2.0463314 1.1274391
H -1.6982309 -0.59950465 -0.4101644
H -0.14193687 1.3966384 -0.73134935
H -0.43088022 -1.1908818 0.6842056
