10

O 0.24830708 1.81664769 0.37662926
C 0.04566139 0.54487436 -0.01540183
C 0.91582947 -1.16460129 0.08720988
N 1.18358697 -0.15190939 -0.65543252
N -0.12470083 -0.65608642 0.92124532
C -1.33105283 0.14737206 -0.46477861
N -1.42551631 -0.91446438 0.25077347
H 1.35907557 -2.15538525 0.10763046
H 1.19385601 1.95616443 0.52910750
H -2.06504641 0.57738781 -1.13698303
