10

O -1.1004578 1.1791264 0.9499308
C -1.0549705 -0.8495916 -0.41793624
C 1.4580082 0.010368337 -0.27703762
N 0.630377 -0.6831561 0.65621275
N -0.15443933 -1.7028725 -0.08719453
C -0.3790576 0.35913163 0.162942
N 0.69591767 0.975714 -0.6459312
H -0.5749107 1.9648226 1.1579189
H 2.4750655 -0.23088083 -0.57017624
H -1.9955324 -1.0226619 -0.92872864
