10

O 1.4464855 -1.2717323 0.8705427
C 0.54672664 -0.45422602 0.3203041
C 0.88479483 0.89300853 0.08331316
N 0.0076577077 1.7129693 -0.4577998
N -1.204871 1.2584257 -0.77978826
C -1.4657019 -0.01394195 -0.5336797
N -0.63975126 -0.9183941 0.011349154
H 1.0255551 -2.142953 0.95445794
H 1.8592452 1.2970998 0.33411795
H -2.4601407 -0.36025634 -0.80281734
