10

O -0.23459248 0.32115147 -1.272657
C 0.4698592 -0.7228004 -0.6139879
C -0.2958674 1.0665143 -0.035220046
C 0.38212106 -0.08016804 0.7089213
N -0.30109325 -1.3409297 0.4233668
H 0.31390008 1.9720368 -0.10623905
H -1.3040239 -1.2431775 0.27050698
H -1.3229356 1.3201413 0.2530607
H 1.223542 -1.2688819 -1.1703289
H 1.06909 -0.0238863 1.5425773
