10

O 0.89988446 -0.6749285 1.3634757
C -0.9676599 0.5664546 -0.3329412
C 0.42122686 0.3919757 -0.63163114
C 0.48553136 -0.9346452 0.16075657
N -0.14463681 1.3116459 0.42170212
H -0.73235035 -1.144566 0.15675114
H 0.17383789 0.8694973 1.338549
H 1.0321661 0.8157745 -1.4203457
H 0.8346069 -1.8125693 -0.41317236
H -2.0026066 0.6113609 -0.6431442
