10

N -0.7224706 -2.1747835 1.1475711
C -0.92407316 -1.2419629 0.49236655
O -0.2063676 1.437505 -0.4763044
C 0.5634915 0.40613574 -0.6583478
C -1.181061 -0.034940593 -0.29110786
N 1.6797793 0.42129162 0.083654545
H 2.36243 -0.3149408 -0.0021858353
H 1.8669909 1.1920573 0.71940184
H -1.5421814 -0.26092064 -1.2884727
H -1.8965379 0.5705588 0.2734246
