10

N 0.9262421 1.9188112 -0.45547655
C -0.70143145 -1.0915383 -0.14864163
O 0.2749192 -0.124154106 -0.47239044
C -0.111733764 1.1405333 -0.17008872
C -0.44243854 -1.670194 1.1796962
N -0.25416481 -2.1386642 2.217036
H 0.83024836 2.9086215 -0.30847928
H -1.6941634 -0.63318205 -0.14736634
H -0.6503773 -1.8827481 -0.901275
H 1.8228997 1.5725144 -0.7930141
