10

O -0.5235908 0.51597923 -0.82640564
C 0.8029259 0.7626028 -0.7359333
N -1.0768286 -0.1532778 2.498469
C -1.0148009 -0.34114274 1.3610859
C -0.98615575 -0.6025653 -0.0889093
N 1.5807166 0.06091711 -0.032923065
H -2.0039709 -0.78765565 -0.44584227
H 1.04283 1.6261371 -1.360414
H 2.5370731 0.39764145 -0.101823024
H -0.3581987 -1.4786363 -0.26730475
