10

O -0.60279775 0.05797746 -0.92552773
C -0.95039172 -0.08196343 1.44526531
N 1.51936121 0.42131029 -0.13228350
C -0.80763347 -0.81304225 0.17373386
C 0.62079686 0.62975621 -0.99290943
N -1.09658095 0.46644621 2.45057947
H -1.73719648 -1.34727240 -0.04562435
H 0.66724682 1.25518367 -1.88728323
H 2.36793572 0.93146635 -0.36121651
H 0.01925962 -1.51986215 0.27526628
