13

C 0.982458 0.3662254 1.3169545
C -0.49827436 0.27296507 -0.735995
O -0.48371634 1.6044655 -1.0035925
C 0.13795277 -0.3171463 0.2823306
O -0.03854715 -1.6921186 0.43245676
N -1.273643 -0.40688366 -1.6717145
H 0.7733429 1.4387829 1.3888756
H 2.0584738 0.24382661 1.1191798
H -1.3778027 -1.3716688 -1.3897154
H 0.82986164 -2.1112037 0.33488658
H 0.78083163 -0.0723187 2.3005755
H -2.1735039 0.040977336 -1.7985879
H 0.2825665 2.0040972 -0.57565403
