10

O 1.8684129 -0.76497614 -1.4888998
C -0.54333895 1.0034648 0.26148155
N 0.54077417 1.0240358 -0.7132889
C 1.012228 -0.26640853 -0.7824272
C -0.639009 -0.27174214 0.81930345
N 0.2791195 -1.0170608 0.19085896
H -0.895688 1.9314412 0.6945884
H 0.4689402 -1.9959685 0.34608716
H -1.2882057 -0.6533426 1.5942386
H -0.803233 1.0105568 -0.9219423
