10

O 2.48504675 0.42910018 0.57081935
C -0.49458114 -0.54950448 -0.88849133
N 0.14183571 0.56366152 0.93284668
C 1.40972587 0.11221309 0.11242623
C -0.92227959 0.17488269 0.33701601
N 0.94235689 -0.52704575 -0.92544606
H 0.20706588 1.08096239 1.79849163
H -1.92835508 0.35989239 0.69577612
H -0.94197157 -0.07151003 -1.77256839
H -0.89884369 -1.57265191 -0.86087028
