10

O 2.364022 -0.39391434 0.27071777
C 1.1741486 -0.19466496 0.13408677
N 0.33075127 0.5736515 0.9232754
C -0.972882 0.5492066 0.43728516
C -0.97600526 -0.22496405 -0.6602368
N 0.3262262 -0.6808825 -0.84977984
H 0.6604092 1.060704 1.7372818
H -1.7762218 1.0865388 0.9181534
H -1.7824693 -0.49278355 -1.3253686
H 0.6520211 -1.2828914 -1.5854151
