10

O -0.5587487 -1.0271132 1.5025563
C 0.72148794 0.8438871 -0.5356318
C -0.7247279 -0.051719863 0.56030244
O 1.2754713 -0.45835608 -0.58305675
C -0.13178729 -0.27900052 -0.8374892
O 0.18509404 1.0890129 0.73244834
H -1.7605009 0.29026365 0.59098697
H -0.5539759 -0.6991345 -1.7417451
H 1.1980629 1.6420562 -1.0929761
H 0.3496247 -1.3498956 1.404605
