10

N 1.0244446 -0.051770605 0.046674784
C 0.27660647 0.72741866 -0.839994
C -1.1236349 0.7285217 -0.48676252
C 0.1439829 -0.6315455 0.9129114
C -1.128167 -0.23516555 0.5930361
H 0.7862002 1.4308804 -1.4908766
H 2.019914 -0.20103343 0.03211999
H -0.48194632 0.101320736 -1.5656934
H 0.5015035 -1.305856 1.6824354
H -2.0189033 -0.56277055 1.1161488
