10

O -1.764876 -1.1077018 1.2136899
C -0.8758199 -0.54837227 0.6012413
N -0.86569136 -0.13820344 -0.72238445
C 0.3448588 0.46535578 -1.051981
C 1.1127387 0.4485273 0.051086154
N 0.37376475 -0.16704412 1.059293
H -1.6530296 -0.28194743 -1.3306478
H 0.54809576 0.84885985 -2.0383136
H 2.112955 0.81604874 0.2123388
H 0.66700345 -0.3355225 2.0056777
