10

O -1.8297846 -1.1900771 0.4281712
C -0.7728477 -0.4702065 -0.017183267
N 0.16296642 -0.08453634 0.9337366
C -0.45611787 -0.03470405 -1.279094
C 1.1134032 0.6141466 0.30170012
N 0.74246186 0.6362666 -0.9846368
H 1.9885468 1.0551201 0.7531212
H 0.13504694 -0.29081708 1.9203314
H 1.2856935 1.1022785 -1.6954014
H -2.3693688 -1.3374709 -0.36074525
