10

O -1.84443019 -0.99900835 0.74012523
C -0.81146366 -0.38229180 0.11858623
N 0.61794539 0.58813649 -1.09445574
C -0.68274193 0.06316803 -1.17269032
C 1.21235181 0.47752416 0.10019708
N 0.31986314 -0.13674361 0.88575237
H -2.53210017 -1.05708114 0.06262781
H 1.07188939 1.01856791 -1.88573171
H 2.19960490 0.80335074 0.38878558
H 0.44908091 -0.37562232 1.85680348
