11

O -2.2960868 -0.62334496 -0.42779854
C -1.1528766 -0.3744828 -0.16304669
C 0.113968685 -1.212325 0.0424019
N 0.7577298 -0.04920085 0.7310461
C 0.8579107 0.9804433 -0.28340513
C -0.4419611 0.81018287 0.41401023
H -0.06131082 -2.0389373 0.736374
H 0.658481 -1.5756088 -0.83466196
H 0.9577015 0.69534045 -1.3293269
H 1.4540693 1.8368902 0.020246066
H -0.847626 1.5510426 1.094161
