11

O 1.4838917 -1.2352237 -1.361103
C -0.669146 -0.91194564 -0.07876683
C 0.69056624 -0.5942571 -0.7361537
N -0.86440784 0.56244934 0.041675065
C 0.511829 0.8813554 -0.42464283
C 0.45204046 1.0867546 1.0400957
H -0.9693486 1.16015 0.9857299
H 0.70024514 1.6840957 -1.1333715
H 0.7327789 0.17464025 1.5859308
H -0.7023277 -1.4482611 0.8739539
H -1.3661213 -1.3597581 -0.7933474
