11

N -1.2673535 -0.20560513 1.2217784
C 0.60699785 0.7077846 -0.59952027
C -1.5931407 0.61878496 0.08784886
N -0.1462456 -0.7502892 1.2681403
C 0.7122608 -0.6044854 0.1288247
N -0.77297395 1.1294348 -0.73286855
N 1.4847527 -1.5462207 -0.21553802
H 1.4138418 -2.3136818 0.45935598
H 1.151988 1.4950384 -0.061196186
H -2.6511781 0.85668147 0.032068904
H 1.0610509 0.6125579 -1.5888941
