11

N -0.4233028 -1.6479702 -1.0632617
C -0.2345122 -0.4882753 -0.35516638
C 1.0134044 -0.13304351 0.20290947
N 1.1627637 1.0151477 0.82268596
C 0.065460004 1.7905071 0.8706327
N -1.1233369 1.4904199 0.3714198
N -1.2796011 0.32826424 -0.24622259
H 0.17935069 -2.4300334 -0.8682562
H -1.3873943 -1.8846081 -1.2377217
H 1.8769182 -0.79274946 0.13443387
H 0.1502505 2.752341 1.3685467
