11

O 0.46256876 -1.0949906 -2.337574
C 0.8081851 -0.1498677 -1.6612711
C 0.26714525 0.10776925 -0.33717042
C 0.47234404 1.073558 0.6227147
N -0.31095195 0.8389691 1.7135977
C -0.9861002 -0.25514895 1.4259994
N -0.677073 -0.7354853 0.2038773
H 1.5639756 0.57717586 -2.017504
H 1.1422918 1.9213707 0.58329546
H -1.7076341 -0.73284066 2.075833
H -1.0347513 -1.5505099 -0.27179816
