11

C -1.55492965 -0.83739381 0.96630870
N 0.96141258 0.32386352 -1.41025565
C -0.11232796 -0.31572913 -0.75654020
C 1.80553756 0.97200047 -0.80138252
N 2.76808098 1.51443460 -0.30520516
N -0.42075790 -0.10106878 0.44707778
H -2.30994579 -0.12338763 1.31424213
H -1.23132002 -1.42060710 1.83423697
H -2.01822290 -1.51457745 0.23229516
H -0.64357025 -1.00033950 -1.42460892
H 2.75604345 2.50280454 -0.09616843
