10

O -0.7926841 -1.7349128 -0.742821
C -0.29757825 -0.5879674 -0.23354213
C 0.86474544 0.12433366 -0.41920096
C 0.71112406 1.2355208 0.44270983
N -0.43466538 1.213654 1.0987264
N -1.0395749 0.08507536 0.6692407
H -0.15712368 -2.0970247 -1.3710405
H 1.6902318 -0.11936961 -1.0720319
H 1.4017161 2.0521793 0.6055853
H -1.9461913 -0.17148902 1.0223743
