10

O -1.95143974 -0.92428601 0.31945202
C -0.79046664 -0.26945275 0.26049705
C 0.83991655 1.03401728 0.39550302
C -0.38618396 0.84915568 0.99086543
N 1.12546157 0.18578198 -0.67881140
N 0.11435882 -0.75271468 -0.63469158
H 2.05175635 -0.21556291 -0.77679623
H -0.15528228 -1.22254985 -1.48786004
H 1.61634388 1.75907858 0.62601704
H -2.46446479 -0.44346774 0.98582474
