13

C 1.1977211 0.55526036 1.05081
N -0.6391731 -0.2149478 -0.08806347
C 0.73288137 0.48523927 -0.30568117
O 0.32234138 1.1907332 1.97537
C -1.0157139 -1.1471044 -1.1467955
O 1.2375536 0.49181017 -1.3973995
H -0.9329129 -0.66913354 -2.1259212
H 0.12357434 -0.54399574 0.8529746
H -0.33390287 -2.001493 -1.1178983
H -1.3691531 0.43703464 0.17914231
H -2.037158 -1.4994179 -0.981642
H 2.25747 0.7738427 1.194262
H 0.45647216 2.142172 1.9108423
