13

C 1.0931417 0.21007359 0.1397818
N -0.4315179 0.5417221 -0.40540677
C 1.0125307 -0.006124175 1.4708428
O 1.9221822 0.24401958 -0.7515103
C -0.7996511 -0.36135972 -1.5127337
O -0.20321476 0.11641718 2.1699572
H 0.036550734 -0.3615418 -2.2147167
H -1.7164853 -0.024896348 -2.00197
H -0.4438832 -0.7679067 2.480077
H -0.4053487 1.5053856 -0.72797996
H 1.9082435 -0.19727774 2.0531728
H -0.9293403 -1.3661816 -1.1040128
H -1.0432074 0.46767005 0.4044984
