11

C -1.1448671 -0.31371427 0.7062494
N -0.060924478 0.6584498 0.6380293
C 1.1033635 0.18515614 -0.083334275
C 0.83407265 -0.17071447 -1.4983299
N 0.5573901 -0.41902414 -2.59131
H -1.5131075 -0.64261556 -0.27742666
H -1.9769691 0.12446012 1.2642739
H -0.7999112 -1.1965233 1.2570832
H -0.38944066 1.5217962 0.22216524
H 1.8839422 0.9522997 -0.061125576
H 1.5064515 -0.6995703 0.42372546
