11

C -1.43458171 -0.47623730 1.42890194
N -0.21866488 0.42663608 1.60240788
C -0.39519409 -0.15134523 0.49499514
C 1.29610879 0.52000800 -1.11468735
N 0.19007375 -0.33002202 -0.70587928
H -0.37878597 -0.75666641 -1.41571353
H -2.41131520 0.00784002 1.37670570
H -1.42566580 -1.42845861 1.96171138
H 0.96340480 1.49725365 -1.48615589
H 1.94190462 0.67414051 -0.24714700
H 1.87271560 0.01685125 -1.89513889
