10

O 0.04075506 -1.88209405 0.69011507
C 0.10065989 -0.52874938 0.67280678
N -0.15112252 0.21961824 1.65800552
C 0.30097282 1.40997674 -0.74557328
C -0.45111258 0.65185379 -1.43928895
N 0.57559578 -0.03932612 -0.57674006
H -0.37978375 -0.34246099 2.47719900
H 0.73059234 2.33058743 -0.39882521
H -1.17396887 0.37277135 -2.18411587
H 0.40741182 -2.19217680 -0.15358271
