9

O 2.05712990 -0.04169272 0.99895625
C -1.25582251 -0.29624187 -0.17196995
C -0.22355695 0.70916235 -0.05700124
C 1.14778294 0.36631503 0.14108651
C -2.12812917 -1.12060082 -0.24781475
N 0.97252186 0.67336924 -1.06116912
H -2.89764877 -1.85746959 -0.32519137
H -0.57468769 1.71022712 0.19257993
H 2.90241061 -0.14306874 0.53052365
