11

O 0.98837733 0.040686876 1.4483389
C -0.83814234 1.1341391 -1.4160146
C -0.24176258 0.04122994 0.6960904
N -0.28499922 1.0830898 -0.2303625
C 0.73090935 -1.0235118 0.55778074
O 0.5319254 -2.2723358 1.0781927
H -1.0001324 2.0914032 -1.8926036
H -0.15593001 -2.1884727 1.7512465
H 1.421339 -1.087928 -0.28535298
H 0.031003226 1.9693813 0.15994188
H -1.1825876 0.21231785 -1.8672576
