11

O -0.25555634 1.2987745 -1.8071604
C -0.7555464 -1.4934456 0.7711059
C 0.61152464 0.62621945 -1.0775709
N -0.017990172 -0.37796962 1.1322634
C 0.5731993 0.48680422 0.33859757
O 1.6432066 1.2369872 0.36938548
H 0.13940412 -0.2102384 2.1229467
H -1.655146 -1.6705313 1.3512185
H 1.464244 0.28572014 -1.6564702
H -1.0181199 1.549722 -1.2590108
H -0.7292199 -1.7320424 -0.28530514
