11

C -0.44946948 0.7916873 -1.3415583
N 0.22542994 -0.6762114 0.61317205
C 0.9745404 -0.9036833 -0.51968473
O 1.7735257 -1.7826154 -0.68479973
C -0.48616728 0.5614635 0.8080816
O 0.7101293 0.086735725 -1.432432
H -1.3067292 0.0983547 -1.2695454
H -0.02648547 1.2000124 1.573602
H 0.57982725 -1.1823326 1.4105906
H -0.4394701 1.3784165 -0.1432418
H -1.5551312 0.42817244 0.9858158
