11

O 1.0936999 0.7404858 -1.4818941
C -1.2350749 -0.6341208 -0.82286316
C 1.3029186 0.76408035 -0.29760233
O -0.7385518 -0.4465841 0.51029694
C 0.41527414 0.17515737 0.77531767
N 0.86455363 0.32858726 1.95414
H 0.23243555 -0.081313565 2.6415386
H -0.5408132 -1.2247807 -1.4247204
H 2.1983945 1.2317629 0.15133241
H -2.17252 -1.1762638 -0.6905563
H -1.4203163 0.32298928 -1.3149892
