11

O 1.52368654 0.58336169 -1.13074191
C 1.29337217 0.83465613 0.02281024
C 0.10282798 0.35042966 0.81906996
O -0.85510425 -0.42689420 0.30307948
C -0.83326155 -0.89509390 -1.05314064
N 0.09352851 0.75337804 2.02429235
H 1.95016348 1.46570416 0.64934836
H 0.05224496 -1.50430623 -1.24768915
H -0.72716582 0.40450269 2.51912121
H -0.86550121 -0.06333261 -1.76003234
H -1.73479100 -1.50240548 -1.14611771
