9

N -0.5589737 -0.5894008 -1.5956675
C -0.5778006 -0.651534 -0.26487088
N 0.25133473 0.27296194 0.29004106
C 0.37090057 0.3793863 1.6721609
O 1.0900916 1.1813021 2.2101152
H 0.0019444986 0.05278468 -2.152902
H 0.8310297 0.93490255 -0.23224494
H -1.1410497 -1.2264264 -2.1136644
H -0.2674772 -0.3539765 2.1870327
