9

N 1.5940405 0.69958276 0.7275729
C -1.3122404 -0.7925155 -0.6732458
N -0.14020798 -0.53731704 0.02514152
C 0.5308367 0.6425828 -0.1152355
O -1.9224211 -1.8284919 -0.5966289
H 2.1120486 1.5551656 0.51315933
H 0.22004679 -1.2919631 0.610266
H 0.5310182 1.4885242 0.8087119
H -1.6131213 0.06443233 -1.2997417
