9

N -0.8060448 1.8450788 -0.12793611
C -0.10852359 0.811204 -0.3498798
N -0.23823304 -0.30932507 0.4560381
C 0.48014176 -1.4714452 0.29896873
O 0.3638663 -2.4387293 1.0105846
H -0.594623 2.573888 -0.7998753
H 0.6313846 0.68038905 -1.147462
H -0.90804374 -0.26498747 1.2143072
H 1.1800755 -1.426073 -0.5547449
