9

O -1.0615814 -0.8670902 1.4202163
C 0.023325033 0.60862774 -1.376029
N -0.38959035 1.0043172 -2.3781097
O 1.0408454 -1.1740072 -0.15817095
C 0.51018304 0.102454945 -0.06764158
C -0.67453146 0.14774957 0.8979899
H 0.417281 -1.7630411 0.29809782
H 1.2735112 0.8068686 0.2939978
H -1.1394427 1.1341205 1.0696492
