11

C 0.7775259 0.60643303 -0.9420908
N 0.3088388 -0.28635412 -0.013854118
C -0.6470729 -1.0021875 -0.683582
N -0.7289046 -0.6017072 -1.9168123
C 0.010861084 0.32615995 1.9742687
N 0.18285948 0.423566 -2.0833166
H -1.0701786 0.104111865 1.9458555
H 1.5382514 1.343209 -0.73026156
H -1.2213081 -1.8012528 -0.2375628
H 0.7401895 -0.5045776 0.9750233
H 0.10893818 1.3925987 1.7123325
