11

C 0.69425410 1.01247347 -0.76187653
N 0.00024090 0.00308958 0.01783644
C 0.53652798 -1.00210262 0.76602332
N -0.40660868 -1.73539359 1.28970633
C -1.34578115 -0.18586047 0.12592601
N -1.60807885 -1.21513436 0.88181397
H 0.07695168 1.91167661 -0.81273200
H 1.63826855 1.26191743 -0.27308289
H 0.89188385 0.65070778 -1.77485493
H 1.59921788 -1.14932640 0.89641177
H -2.07687608 0.44795246 -0.35517165
