11

N 1.0444267 0.06200423 1.4145051
C 0.34016588 -0.9380792 0.7629804
C 0.43107283 0.96528053 -0.77228266
O -0.9127312 0.577437 -0.4417666
C -1.1081325 -0.5463435 0.42880654
C 1.2533275 -0.035214264 0.05697652
N 1.0617862 -1.3497196 -0.3549405
H 0.59628457 0.8344813 -1.8434706
H -1.6378042 -1.3427821 -0.10079049
H 0.59452194 1.9992979 -0.46366805
H -1.6629179 -0.22636206 1.3136503
