11

O -0.04442840 -0.75960656 1.70021918
C 0.76044525 0.99050446 -0.49986567
C -0.26018294 -0.09123471 -0.55138885
N -0.59945283 1.24471172 -0.06874148
C -0.26047477 -1.19795827 0.44464346
O -0.41343073 -2.36041602 0.15701108
H 1.10750665 1.38404599 -1.45163731
H 1.49388785 0.98853137 0.30247474
H -0.05261083 -1.53858320 2.27480709
H -1.12536450 1.74871137 -0.77413518
H -0.60589482 -0.40870634 -1.53338725
