11

C -0.8220116 0.74691546 -0.8351271
C 0.50078934 0.6260221 -0.13037965
O 0.4941003 0.68740475 1.2883751
C 0.8674972 -0.5418038 0.6913727
C -0.054834865 -1.6553113 0.8555648
N -0.77027184 -2.5554473 0.96596867
H -1.1562731 1.787829 -0.8312706
H -0.72429836 0.42269346 -1.8765905
H -1.5860077 0.13500583 -0.34658992
H 1.3365622 1.1622742 -0.5838518
H 1.9147487 -0.8155822 0.8025285
