11

C 0.17081943 -0.27694988 -0.6478825
C -0.87419266 -1.0795571 0.07364247
O 1.4893354 -0.2692382 -0.085338846
C 0.8084424 1.6716009 1.4156841
C 0.81190014 0.93442184 -0.120524816
N -0.3484904 1.5262957 1.1478072
H 1.1803141 1.7056746 -0.7900975
H -0.78590465 -2.1324282 -0.21096142
H -1.8726943 -0.7252127 -0.20073755
H -0.7527691 -0.9875876 1.1551087
H 0.17323986 -0.36701956 -1.7366998
