11

C -0.38884839 0.08804861 -0.70157210
C -0.71781573 1.14310607 0.31826057
O -0.79348796 -1.25119435 -0.41228100
C 1.85793335 -1.10474450 1.78307678
C 0.58222811 -0.98217800 -0.45143969
N 1.26908072 -1.05184304 0.77106413
H -0.13272036 2.04689254 0.12114990
H -0.53666913 0.36233027 -1.74840741
H -1.77848243 1.40142648 0.25883061
H 1.13581073 -1.44410449 -1.26806661
H -0.49702863 0.79226061 1.32938503
