11

O 0.8177828 0.33319414 -2.307988
C 0.14051417 -0.038378093 0.9595468
N -1.6029632 -0.28760126 -0.59246826
C 0.23452204 0.6315458 -1.1598461
O 0.6070665 -0.042015154 2.2169602
C -1.2304586 -0.26174086 0.6621989
N 0.8937953 0.35067946 -0.044040173
H 1.4789299 0.38054982 2.2002227
H -1.0210776 -0.8589395 -1.2063015
H 1.6585543 -0.13481167 -2.1587825
H -1.9766656 -0.07248259 1.4304979
