11

N -1.08783511 0.55114855 -1.66130289
C -0.43167058 0.19782385 -0.62429467
C 0.96291441 0.70653517 -0.29643331
N 1.37824901 0.07365650 0.95479434
N 0.36363505 -0.66221094 1.26276820
C -0.71744936 -0.69842260 0.48161256
H -1.99587113 0.08911984 -1.69091207
H 0.97919423 1.79689397 -0.18063759
H 1.67671379 0.45297802 -1.08812061
H 0.44346391 -1.19947378 2.12017396
H -1.57134406 -1.30804861 0.72235214
