11

N -0.65027094 -0.62309456 -1.8722954
C 0.7099525 0.7005433 -0.061519004
C -0.24332076 -0.25204557 -0.5867909
N -0.5344151 0.028916042 1.7067504
N 0.48346126 0.7957502 1.2660998
C -0.9982112 -0.57173806 0.6391832
H -1.8231095 -1.2686162 0.70147413
H 0.5031078 -1.1195496 -0.65017974
H 1.0345702 1.290015 1.9475822
H -0.005302815 -0.19429372 -2.5367324
H 1.5235385 1.2141132 -0.5535724
