11

N 2.0875428 -1.0643588 0.021894686
C -0.99793303 0.3613994 -0.4832154
C -0.6332548 0.9555189 0.8128738
C 1.0169613 -0.65792364 -0.36335385
C 0.032945022 -0.23880717 -1.2189413
O -0.36108032 -0.34625077 1.240262
H 0.22784612 1.6426923 0.77883965
H -2.0355167 0.25016895 -0.7907278
H -0.07902675 -0.69611764 -2.1927457
H 2.2101648 -1.633533 0.8474423
H -1.4686484 1.4272114 1.3476715
