10

O -1.2898719 0.6509607 -1.7767195
C -0.80943865 -0.04520997 0.54609865
C 0.94022405 0.15561064 -1.0124586
C -0.47466424 0.31612247 -0.93653184
O 1.4163203 -0.2304261 0.17670876
C 0.5135818 -0.36655018 1.1012026
H -1.2963539 0.8035571 1.0424715
H 0.8572271 -0.6762847 2.0774095
H 1.6574581 0.27770907 -1.807039
H -1.5144827 -0.885489 0.58885777
