10

O -0.25191423 -0.28249478 -2.25853657
C 1.08589603 -0.80541278 -0.32472820
C 0.01749912 -0.22830723 -1.07233438
C -0.80763810 0.55061497 0.00156364
O 0.97026165 -0.46746703 0.96454771
C -0.05357472 0.28517763 1.23554682
H -1.84117765 0.18238979 0.03606745
H -0.85831310 1.61542978 -0.25820451
H -0.18253343 0.58154590 2.26634407
H 1.92149458 -1.43147618 -0.59026619
