14

C -2.0068884 0.037671532 -0.9153552
N -1.5395766 0.11573496 0.45230582
C 2.1172686 -0.05255485 0.104567654
O 0.1695923 0.026581872 1.9364263
N 0.7159538 -0.20575307 -0.23802315
C -0.28986877 -0.0048182216 0.66761476
H -1.6029454 0.84319395 -1.5501906
H 0.464695 -0.013207337 -1.1931806
H -0.6293961 0.12229483 2.4759588
H -3.0944319 0.14376764 -0.91783786
H -1.7642072 -0.9229682 -1.3951843
H 2.4047642 0.9919888 0.2822584
H 2.7160523 -0.4539252 -0.7150348
H 2.3389878 -0.62800676 1.0056745
