14

C 1.92888090 -0.06955766 -0.87812470
N 0.62216180 -0.35340229 -0.31559582
C -0.03403405 0.52519483 0.50276106
O 0.78404288 1.49377268 0.96598913
N -1.25234100 0.50556989 0.87424958
C -2.09512494 -0.56824523 0.39299373
H 0.02054093 -0.94965049 -0.85880020
H 2.31730906 -0.98781050 -1.32233587
H 1.90608762 0.71823749 -1.64242728
H 2.60978611 0.24224698 -0.08349031
H -1.72950243 -1.56342784 0.68945718
H -3.09440407 -0.44267473 0.81688839
H 0.22372208 2.01283693 1.56201904
H -2.20712490 -0.56309021 -0.70358355
