10

N -0.2684502 -1.6721883 0.96882755
C -0.020384936 1.1814327 -1.0257511
C 0.51660806 0.6780549 1.1441381
O 0.51246965 1.6372889 0.26323512
C -0.0599252 -0.4762906 0.35884705
N -0.3421568 -0.19009174 -0.870347
H 0.7548453 1.3576174 -1.7768553
H 0.2641398 -1.8498473 1.8041303
H -0.8969476 1.7986523 -1.2430226
H -0.46019801 -2.4646282 0.37679774
