10

N -0.06012812 -0.02198853 -0.95216133
C -0.21103603 1.36922014 -0.72736789
C 0.03456633 -0.55562444 0.22203975
O -0.15887686 1.56879448 0.72544795
C -0.00912992 0.43984388 1.35725763
N 0.13053963 -1.88394227 0.49053753
H 0.59559465 1.96430453 -1.16486302
H -1.17966612 1.74877661 -1.06533488
H 0.35806541 -2.49452541 -0.27799858
H 0.50007114 -2.13485916 1.39244256
