9

N 0.31892571 -0.05161282 -2.00331536
C 0.02124279 -0.35798135 -0.86546181
C -0.21563009 -0.74238719 0.42018502
C -0.63220096 0.52863839 1.27362944
N 0.63904190 -0.04454172 1.41504167
H 1.43853075 0.43347520 0.98223649
H -0.61238169 1.48811908 0.71579902
H -0.33829012 0.47081783 -2.57507412
H -0.61923843 -1.72452731 0.63695961
