9

N 1.1046554 -0.98229784 -2.1887832
C 0.8936729 -0.51225746 -1.1540105
C 0.6167241 0.051255263 0.15480459
C -0.70740783 0.6931175 0.3811232
N -0.39268473 -0.57877946 1.0052221
H 1.4925152 0.4225646 0.6804552
H -0.7626688 1.5440427 1.0552498
H -1.4019316 0.7131721 -0.45530134
H -0.84287477 -1.3508173 0.5212401
