11

C -0.75086747 0.63836982 -1.86025959
N -0.56106985 1.25051227 -0.61876322
C -0.05369056 0.75653331 0.54448382
O -1.21601407 1.23300770 -2.79921203
C 0.80306624 -1.16935003 1.51253128
O 0.25806404 -0.51625810 0.35809914
H -0.84305907 2.22121987 -0.59257819
H -0.43746786 -0.41632151 -1.89142541
H 0.88286183 -0.44590738 2.32666829
H 0.13397894 -1.99012014 1.78166647
H 1.78419814 -1.56168566 1.23878936
