11

N 0.23604713 1.2233349 -1.9490713
C -0.1404563 -0.89952135 0.7660353
O 0.627667 -0.3556411 -0.4837705
N 0.43223777 -0.92857194 1.9818741
C -0.12914743 0.6361117 -0.8094633
N -1.0043935 0.15311605 1.0793935
H -0.4013086 0.8947482 1.428292
H 0.2898027 -1.8392755 2.4136224
H 1.0221559 0.8853126 -2.4899237
H -0.2890164 2.010005 -2.289053
H -0.6435882 -1.7796189 0.3520648
