11

N -0.44459236 1.4588569 -0.8709617
C -0.4178248 -0.95019513 0.08013551
C 0.39773917 0.7996685 -1.4972638
C 0.889243 -0.36681673 -0.50251913
C -0.25762945 0.26416656 0.968449
O 1.1009773 0.26559594 0.7538687
H -0.93059605 1.9600781 -0.15385483
H -1.2920973 -1.0751165 -0.5593306
H 1.7339844 -0.96559626 -0.835614
H -0.5974622 0.47296476 1.9812963
H -0.18174139 -1.8636061 0.63579446
