10

O -0.80335134 -0.41684383 2.1925092
C 0.86615264 0.6317188 -0.64236724
N 0.6950229 0.649837 0.79747033
C -0.29365352 -0.13199423 0.99319214
C -0.21336186 -0.29736075 -1.119204
N -0.90262645 -0.74935365 -0.13684459
H -0.41989172 -0.57312787 -2.1496093
H 0.75303096 1.6359442 -1.0673319
H -1.5462556 -1.0214968 2.0508482
H 1.8649338 0.27267715 -0.9186628
