10

O -2.2215483 -0.017729321 0.5786745
C -0.92027915 -0.08322684 0.26094055
N -0.5542332 -0.16822436 -1.0227562
C 0.9041771 -0.10458487 -0.9019274
C 1.1884112 -0.05650406 0.46101907
N 0.04765222 -0.04615102 1.1739211
H 0.14513455 0.8530983 -1.2775515
H -2.2688239 0.035929505 1.5424935
H 1.5179615 -0.38065016 -1.7494618
H 2.1615472 -0.031957187 0.93464804
