10

O 0.62547226 1.18692073 1.95607572
C 0.11801992 -0.00647076 -1.24416809
N -0.49197190 -0.59379712 0.89462865
C -0.61461895 -0.94804168 -0.33169992
C 0.31686436 0.57573458 0.81130272
N 0.69754635 0.96875873 -0.34093918
H 0.89418779 -0.52096771 -1.82353868
H -1.18760494 -1.82172003 -0.62971059
H 0.20150231 0.68808080 2.66950967
H -0.55939692 0.47150222 -1.96146049
