9

N -1.1531594 -2.1337895 -0.26479167
C 0.23118144 -0.27944046 -0.366223
O 2.105678 1.6506834 -0.7743495
C -1.4669706 -3.2149236 -0.60756713
O 0.23141219 0.9035999 0.31436783
C 1.236977 1.802368 0.020129766
N -0.8293442 -0.9046296 0.15395452
H -1.4362456 -0.51106375 0.8683324
H 1.0804708 2.6871958 0.6561467
