9

N -2.2150586 0.2103641 -1.0633436
C 1.7770554 0.31654203 0.70632696
O 0.73709226 -0.5031263 0.27347013
C -0.44297528 0.085022815 0.037011117
O 1.6672313 1.4352261 1.0852644
C -1.4276503 1.1957119 -0.9517706
N -1.4499774 -0.74498695 -0.22415252
H -1.3451861 -1.7197008 -0.512784
H 2.6994689 -0.2750527 0.6499783
