9

N 0.41654735 -1.99951413 1.33468364
C 0.81526408 -2.75847590 2.14080114
O -0.35871861 0.60499885 -0.68859919
C -0.16868261 1.93606441 -1.00112363
O 0.56280856 2.69063736 -0.44941058
C 0.35637191 0.10023847 0.35861184
N -0.06323438 -1.16790164 0.40233774
H -0.74200956 -1.57191909 -0.23765702
H -0.81834673 2.16587163 -1.85964395
