9

O -1.9675412 0.4227075 0.0766429
C -0.6572737 0.13411011 0.031830285
N -0.1114441 -0.89391935 0.65651345
N 1.1744832 -0.7807653 0.329648
N 1.4988043 0.22675575 -0.44894215
C 0.33941358 0.84316194 -0.6630608
H -2.3988047 -0.23888725 0.632699
H 1.8600302 -1.4402938 0.66105956
H 0.26233262 1.7271303 -1.2763902
