9

O -1.6205935 -0.60379636 1.2369586
C 0.26416394 -0.77079505 -0.19296212
N 0.80029505 -0.24340576 -1.2602938
N -0.0675348 1.1921759 0.9158067
N 1.2775888 0.92343 -1.2382292
C -0.5708231 0.07670713 0.69992673
H -1.9756385 -0.03940059 1.9382045
H 0.56147385 -1.7700759 0.117904976
H 1.3310684 1.2351606 -2.2173166
