10

O -1.57392954 -0.69042574 1.41092735
C -0.76569832 -0.32261241 0.59636969
N -0.82310280 -0.11365873 -0.72162731
C 0.44071300 0.34741007 -1.25262449
C 1.43651247 0.47754857 -0.36066693
N 0.66490853 0.02611532 0.92007152
H -1.67894571 -0.25729507 -1.23537269
H 0.47757088 0.54552062 -2.31531518
H 0.68879584 0.76632031 1.62131864
H 1.13317566 -0.77892287 1.33691967
