9

N -0.41459212 -1.0468681 -1.0487525
C -0.2295392 1.2325436 0.36033377
C 0.27531806 -0.77484167 0.20448723
C -0.012270575 0.3418616 -0.7440582
N 0.4165502 1.4359934 1.3552841
H 1.0619775 0.25040868 1.1848669
H -0.43568134 -0.9074982 1.0221802
H -1.4007924 -1.2549714 -0.90368515
H 0.7390299 0.723372 -1.4306564
