10

O 1.27376194 -0.17023468 -0.79708139
C 0.34308767 0.51441176 0.91416918
C -0.78628060 -0.08929397 -0.76773970
N 0.29289640 0.95455783 -0.53634184
C 0.27169427 -0.76119444 0.08851601
H -0.51693662 0.83981497 1.50325800
H -1.75507865 0.17771889 -0.33831078
H 0.41305638 -1.81071195 0.36585313
H 1.30358459 0.74451100 1.37976521
H -0.83978546 -0.39957910 -1.81208807
