10

O 0.7943608 1.9334276 -0.76564723
C 0.3552568 0.89139766 -0.37872076
C -0.9304471 0.44130945 0.3278449
N -0.50703317 -0.95607716 0.09804101
C 0.83360636 -0.5644223 -0.38873094
H -0.9563562 0.7666751 1.3767004
H -1.8746527 0.7258324 -0.1508466
H -0.48998827 -1.5297 0.9329617
H 1.6639584 -0.72925925 0.31229928
H 1.111295 -0.9791832 -1.363902
