10

O -0.1231918 0.57811517 -2.4392343
C 0.09284802 -0.71161485 0.103439204
C 0.05178233 1.2857608 -1.4886758
N 0.14987263 1.3495543 0.98957276
O -0.23827425 -0.68638587 2.450384
C -0.0059659914 0.72485876 -0.06625673
C -0.21517743 -1.2776806 1.3836156
H -0.52197784 -2.3394945 1.3111521
H 0.25935864 2.3663485 -1.5510386
H 0.55072564 -1.2894616 -0.6929583
