10

O 1.7139809 -1.7742819 0.8282635
C 1.152729 -1.4693602 -0.19775799
C 0.19605419 -0.34131685 -0.26295164
N -0.3925819 -0.04308149 -1.3926971
O -1.1927143 1.0323427 -1.1203041
C -1.0677344 1.3605533 0.17677344
C -0.19923122 0.53065 0.79503185
H 1.3144072 -2.004421 -1.1497254
H -1.6595129 2.2044363 0.50365335
H 0.13460346 0.50447917 1.819714
