11

N 0.10271588 0.7131929 -1.7199082
C -0.0050808922 0.16599987 -0.43760666
C 0.8905125 -0.5052475 0.36856964
C 0.13125208 -0.8592211 1.5079901
N -1.1181196 -0.44239038 1.4311026
N -1.1818421 0.1813348 0.23243928
H 1.0476916 0.6359762 -2.0728161
H -0.19318394 1.679962 -1.769748
H 1.9335266 -0.70012474 0.16652168
H 0.4603278 -1.3969359 2.3866823
H -2.0678003 0.5274538 -0.093226455
