10

N 0.97268724 1.4211673 0.5556871
C 0.25886768 0.3206093 0.0994291
N 0.24333683 -0.024926094 -1.1837792
N -0.4716654 -1.142642 -1.1844741
N -0.9339368 -1.5512861 -0.027317017
C -0.48281166 -0.6363073 0.82631
H 0.49752948 1.9511988 1.2712256
H 1.2558118 2.0225418 -0.20722434
H -0.64710546 -1.6554861 -2.0331757
H -0.6927136 -0.70486945 1.8833185
