11

N 1.9179037 0.62273186 -1.2075317
C 0.88855165 0.26533148 -0.5640135
C 0.056821246 1.1203251 0.30379957
C -0.9343232 0.38311 0.7976971
C -0.80726314 -1.0195665 0.2773252
O 0.3514355 -0.9941423 -0.5580546
H 2.3074589 -0.15773343 -1.7338376
H 0.27149722 2.167632 0.46561185
H -1.7261717 0.6974387 1.4658501
H -1.6708498 -1.3288611 -0.3213328
H -0.6550604 -1.7562656 1.0744866
