11

N 0.3905333 1.6414781 -0.56643736
C -0.8810162 1.207247 -0.39586562
C 0.07014174 0.74213254 0.621504
C -0.067641295 -1.6543698 -0.08506953
C 0.510109 -0.68322915 0.6210841
O -1.9515688 1.1768602 -0.9268845
H 1.3696806 -0.9058788 1.2522887
H 0.3076223 -2.6719491 -0.050412793
H 0.21076564 1.2767674 1.5582722
H 0.9890175 1.344447 -1.3297884
H -0.94764376 -1.473505 -0.6986909
