11

N -1.4391439 -0.41880566 1.9986752
C 0.8731156 0.838168 -0.32901424
C -0.7117481 -0.14006056 0.98714745
C 0.22300914 -0.3228784 -1.0934843
C 0.10553559 1.0964432 0.90548736
O -0.61544985 -0.9419163 -0.121757194
H 0.9278417 -1.0682982 -1.4693984
H -1.9076043 -1.3121635 1.851927
H -0.39836127 0.02939067 -1.9240627
H 1.8351563 0.5153105 0.11847522
H 1.1076492 1.7248104 -0.92399555
