11

N -0.7379257 2.2624214 0.43631113
C 0.94052815 -0.720051 -0.515736
C 0.13308378 -1.7287755 -0.04444937
C -0.64498234 0.967244 0.3409101
C 0.48965335 0.5874546 -0.53260654
O -1.320126 0.04779571 0.873551
H 0.58321154 -2.6547105 0.3023194
H 1.9710392 -0.9403423 -0.79431105
H 0.98762816 1.3881682 -1.0710249
H -0.94219244 -1.689479 -0.12342922
H -1.4599177 2.4802747 1.1284653
