10

O 0.79058796 1.9355783 -0.7588993
C 0.3532102 0.88987917 -0.37931398
C -0.92851806 0.44085246 0.3284753
N -0.50546205 -0.9560303 0.09647181
C 0.83496934 -0.5639086 -0.39032367
H -0.9539995 0.7688008 1.3767757
H -1.8721645 0.7226259 -0.15153508
H -0.49347636 -1.5296055 0.93137527
H 1.6636322 -0.7273388 0.31187695
H 1.1112206 -0.98085314 -1.3649031
