10

O -2.243822 0.05972709 0.63010883
C -1.087333 -0.063636556 0.29104942
C -0.32070127 -1.0186378 -0.46378383
N 1.0101323 -0.10616622 -0.23975274
C 0.15791175 0.8272577 0.53452724
H 0.06800688 1.7789074 0.0025434396
H 0.50273126 0.9952887 1.558225
H 0.890896 -1.1730845 0.16288461
H 1.5154504 0.2020801 -1.0594225
H -0.49327236 -1.501736 -1.4163795
