10

O 0.37553491 2.04484987 -1.22953347
C 0.27828902 0.95846649 -0.68398650
C -0.65124270 0.49667544 0.49132327
N -0.01063958 -0.87406867 0.36128756
C 0.82371298 -0.32365943 -0.74254254
H -0.45818787 0.92463722 1.47707448
H -1.72321531 0.45146523 0.29083832
H -0.67628677 -1.61076762 0.11468388
H 0.48297622 -1.16943326 1.20691812
H 1.55905892 -0.89816499 -1.28606321
