11

N 1.0733812 -0.9810817 0.9781276
C 0.17082524 -0.33221546 -1.0193274
C 0.9704335 -1.4427598 -0.15823574
C 0.042974193 0.90112853 0.5143018
C -1.031488 0.0439279 -0.12702945
O 0.75419116 0.90930814 -0.6636919
H -1.7219015 0.66348547 -0.70701873
H -1.5542006 -0.72571427 0.44122574
H -0.008616483 1.8360512 1.0698614
H 0.11949074 -0.5040747 -2.0923584
H 1.1849109 -0.36805558 1.764145
