11

N -0.0186763 0.23174825 -1.3641725
C 0.3625002 -1.0211823 -1.1874424
C 0.59369254 0.2231623 0.86757994
C -0.53293765 0.7297262 -0.05479949
C -0.052181583 -1.0765041 0.3092583
O -1.3387207 -0.37197128 0.3357728
H 1.6250572 0.4647849 0.6040468
H -1.0156487 1.7072769 -0.052801587
H -0.06308502 -2.0277512 0.8340908
H 0.05807165 0.7642739 -2.2178023
H 0.38192838 0.37643644 1.9262694
