11

N 1.33808626 0.36695331 -0.01575710
C 0.71585535 1.20388432 0.79444269
C -0.64523409 -0.75742735 0.40744693
C -0.71508490 0.79267633 0.33804079
C 0.28480581 -0.39002613 -0.76368386
O -0.58625238 0.67100049 -1.11692225
H -1.57299399 -1.23194820 0.08421441
H -1.57361560 1.37695549 0.65905401
H -0.20617079 -1.23639788 1.28460399
H 0.62493250 -1.03539678 -1.57355250
H 2.33567185 0.23972665 -0.09788704
