12

C -0.7667246 1.1765251 0.0031955426
N -0.18333916 -0.15367547 -0.14467287
C 1.0618337 -0.41222218 0.4015586
N 1.705242 0.48312533 1.0329975
C -0.85659796 -1.1468469 -0.81804377
O -1.9454124 -1.0185242 -1.3278887
H -1.7392057 1.1584094 -0.4874702
H -0.11256835 1.9193276 -0.45946872
H -0.8706314 1.4174013 1.0634761
H 1.4019676 -1.4424778 0.22550032
H 2.5920036 0.114142634 1.35623
H -0.28656763 -2.095185 -0.84541404
