11

N -0.20388427 1.2763817 -0.91358966
C -0.007123794 -0.058311522 -1.0504136
O -0.11851265 -0.6660122 -2.0986218
C -0.76636344 -1.0522738 1.2514181
C 0.2846625 -0.81827736 0.2258191
O 0.6570666 0.080522664 1.3256198
H -0.45904252 1.801791 -1.735322
H -0.04757859 1.7527062 -0.043397732
H 1.0217699 -1.5992335 0.03772713
H -1.5375125 -0.2854902 1.0393366
H 1.1765189 -0.43180293 1.961424
