11

N -0.62969773 -2.06101222 -0.96261811
C 0.92512030 -0.84529487 0.39000767
C 0.54974059 1.37239148 0.72284854
N 1.33396184 0.23308027 0.94182442
C -0.56005669 1.33373586 -0.01600508
C -0.28853910 -0.96109675 -0.44280549
O -1.01026315 0.19595774 -0.61124261
H 1.48953135 -1.76594873 0.52053296
H 0.88547994 2.29342136 1.18237372
H -1.20859951 2.17645097 -0.21981231
H -1.48667835 -1.97168514 -1.50510376
