11

N 0.76044333 -0.549912 -0.9357328
C -1.2768368 0.71298546 -1.2293577
C 0.82803005 -0.32829756 1.5245324
N 0.69141805 -0.47350517 2.7477603
C -0.23934281 -0.22884724 -1.6774004
C 0.99623376 -0.01840972 0.25800747
O -1.3041165 1.1429548 -0.08996534
H -0.13369043 -0.025643142 3.1260552
H -2.0232322 1.0220796 -1.9829752
H 1.9852525 -0.59534377 0.93606865
H -0.28415897 -0.6580614 -2.6769924
