11

N -0.11140141 -2.3366325 -0.3141058
C 1.0220861 -0.28027266 -0.77412164
C -0.7986843 0.95854634 0.7321634
N 1.1482877 0.98640454 -0.65517586
C 0.18804134 1.6292248 0.1358314
C -0.045116547 -1.0858661 -0.14797893
O -0.94927496 -0.38886648 0.6166915
H -0.90261436 -2.7413461 0.18275912
H -1.5677879 1.3958901 1.356282
H 0.28133744 2.702493 0.24340248
H 1.7351269 -0.839575 -1.3757477
