12

O 0.9740665 -0.539531 2.1188226
C 0.99660915 -1.2643614 0.6288932
C -0.9937778 0.4112609 -1.728289
N -0.3472827 -0.6883174 -1.3981088
N -0.15037636 0.8353907 0.2667286
C 0.15134361 -0.38693485 -0.16338758
N -0.89955366 1.328388 -0.75484085
H 0.5820436 0.34440178 1.9311235
H -1.5317017 0.5798677 -2.6521783
H -1.2571785 2.2688196 -0.7134625
H 1.8983003 -0.6391048 1.6507714
H 0.57750744 -2.249879 0.8139277
