10

N -0.05061323 1.32369644 -2.37244445
C -0.05031461 0.70671866 -1.30192055
C 0.04722342 0.13269954 -0.15292105
C -0.35588993 0.06139888 1.26455895
C 0.60901343 -0.94794364 0.67818509
H -0.77482050 1.02175646 -3.02283539
H -1.36566185 -0.27022261 1.49106881
H 0.04052731 0.81068384 1.94259319
H 0.24658608 -1.95939418 0.51171206
H 1.65394977 -0.87939348 0.96200372
