10

N -1.825046 0.74527013 -1.8700285
C -0.08405744 0.07514908 -0.17467414
C 0.7696677 0.43522894 0.9735112
C -1.0164508 0.39823028 -1.0026069
C 0.86556053 -0.93298995 0.3313066
H 0.30324632 0.50765234 1.9523497
H 0.4636708 -1.7808684 0.88056594
H -2.7977567 0.5697708 -1.6216615
H 1.5805074 1.1362766 0.8021164
H 1.7406578 -1.1537195 -0.27087885
