11

N 1.496917 0.50207907 0.20402883
C -0.75472105 -0.42056063 0.20535652
O -1.1183866 0.95506006 -0.13675028
C -1.2652006 -0.53913164 -1.1882073
C 0.71540594 -0.55288345 0.54355776
O 1.1303794 -1.5837955 1.038349
H 1.1108128 1.336697 -0.19965787
H -0.37913156 -0.3410162 -1.8239127
H -1.3566619 -0.84137577 1.0116649
H -2.0704703 1.0616467 -0.0025190013
H 2.4910567 0.42328027 0.34809002
