9

O 1.8823035 0.8676163 -0.03685878
C 0.8685007 0.38773093 0.81075346
C -0.37672904 0.070921436 0.09681194
C -1.37324 -0.19824727 -0.53209025
C -2.628335 -0.4301656 -1.2984481
N -2.2615488 -1.5722489 -1.2293499
H 2.0378506 0.20601684 -0.72225684
H 0.6686286 1.1763952 1.5414733
H 1.1825697 -0.50801903 1.3699654
