9

O 1.2065687 0.045457546 -1.7635072
C -0.2515199 -0.14688025 0.1382595
C -0.10557365 -0.21646279 -1.3240538
C -0.31884903 -0.047483664 1.3314301
C -0.45081106 0.16517593 3.8318775
N -0.3918595 0.062307585 2.654522
H -0.834918 0.46589378 -1.7866914
H 1.4872658 0.9000638 -1.4143943
H -0.3403035 -1.2280719 -1.6674423
