9

O -0.24281043 -1.2146744 1.7578292
C -0.18805575 0.12548447 1.3335861
C 0.11516348 0.2639251 -0.10026934
C 0.33828473 0.3330218 -1.2817919
C 0.5989296 0.41459623 -2.6404645
N 0.81377804 0.48099327 -3.7784672
H -0.9196422 -1.6726466 1.2448939
H 0.6040546 0.5995597 1.9180046
H -1.119702 0.66974026 1.5466789
