11

O -1.6194284 0.513504 -1.3060708
C -0.55485165 0.28956786 -0.51543653
N 0.60710365 0.100686096 -0.98813903
C 1.8122555 0.13900872 -0.39427364
O 2.4075751 -1.0433023 -0.4198954
C -0.89446706 0.32245326 0.9258989
N 0.010675262 0.06790957 1.7825513
H -0.34445 0.17570326 2.7312644
H 1.8101429 -1.7467808 -0.73878336
H -1.3013204 0.58392495 -2.2172613
H -1.9332348 0.59732527 1.1401454
