11

O -0.94269991 -1.73208541 -0.83860155
C -0.94910202 -0.15959446 0.91382228
N -0.47938781 0.88050739 1.47550293
C 0.91470679 1.31535409 -0.94456356
O 2.20009087 1.35088916 -0.62921252
C -0.40008716 -0.58448308 -0.39458142
N 0.46796124 0.05338960 -1.06456241
H -0.97943477 1.08601412 2.33893214
H 2.54745081 0.46508363 -0.40969850
H -0.61733240 -1.88470256 -1.73708022
H -1.76216571 -0.79037201 1.29004258
