12

C 0.04530365 -0.03623869 0.01884398
N -0.92071412 0.56970916 -0.51264865
C 1.60593391 -0.22852684 1.88541662
N 0.56229371 0.37840288 1.24168222
C -1.39871828 0.08192218 -1.79029623
O 2.05478518 0.13621461 2.94566695
H -2.45462240 -0.19108674 -1.69331707
H -1.34523377 0.89597931 -2.52015347
H 0.13841709 1.18748696 1.68376762
H 0.55776297 -0.91310038 -0.40310938
H 2.00082696 -1.09737621 1.32864076
H -0.84603478 -0.78338647 -2.18449361
