12

C -0.64402914 -1.9177171 -0.3800364
N -1.0007461 -0.6355989 -0.7964835
C -0.4056114 0.472672 -0.5102283
N 0.47877488 0.6109942 0.54448414
C 1.069216 1.8006203 0.893487
O 1.8323523 1.9360297 1.8210076
H 0.2104351 -2.0965443 0.25794768
H 0.76530606 2.6190987 0.21869384
H -0.61911285 1.3548565 -1.1030391
H -0.8915506 -1.3281807 -1.6862118
H 0.6566312 -0.17584157 1.1596776
H -1.4516652 -2.6403885 -0.41929862
