13

C 0.19973856 -1.5209036 -0.59849674
C -0.20565099 -0.05617284 -0.58234376
O -1.5719192 0.13213038 -0.22869213
C 0.7371863 0.7693953 0.30247432
O 1.9414884 0.6181804 0.261023
N 0.098721124 1.6582488 1.1061202
H 1.2488605 -1.616844 -0.88617355
H -0.4276518 -2.0760202 -1.3029805
H 0.08351508 -1.9659549 0.39875624
H -0.11283784 0.3593791 -1.5911356
H -1.7586282 -0.4396329 0.5257821
H -0.88735265 1.8136382 0.9730452
H 0.65453064 2.3245564 1.6226209
