12

N -0.21532279 1.7451086 0.16915967
C 0.6867597 1.157103 -0.4719326
C -0.39103377 0.38843095 2.3864658
N -0.30031154 -0.63628966 -1.779474
C -0.09246137 -1.0717281 0.54050195
N -0.026385508 -0.6146337 1.768723
C 0.14276269 -0.20455167 -0.55125856
H -0.30656114 -2.1225793 0.36951485
H -0.15758482 -0.0077368594 -2.5538116
H 1.5389886 1.5495013 -1.043115
H 0.27020678 0.99223024 3.0039594
H -1.1490567 -1.1748551 -1.8387332
