10

C 0.8289629 0.546602 1.9023654
O -0.27260923 0.73793805 -0.96795475
C -0.6142434 -0.53332216 -1.5754089
O -0.011194752 -0.373055 0.9316948
C 0.06518744 0.74495935 0.29143658
O 1.9953935 0.36139703 2.0343454
H -0.7194784 -0.3167506 -2.6360478
H 0.10206858 0.99848104 2.5788617
H -1.5546771 -0.90526587 -1.1619636
H 0.18059067 -1.260984 -1.3973289
