10

C -1.00730993 0.43528693 -1.36930721
O 0.15095069 1.16462527 -0.89143525
C 0.85995718 0.80317084 0.13796620
O 0.32225787 -0.35812607 0.62734175
C 1.00484044 -0.83970857 1.72317880
O 0.66655007 -1.84328923 2.26785964
H -1.34911104 1.00230045 -2.23263764
H -1.77724005 0.40310762 -0.59502143
H -0.72209606 -0.57996085 -1.65938359
H 1.85120086 -0.18740646 1.99143874
