10

C -0.99039847 0.3842594 -1.3119687
O -0.5400578 -0.39395672 -0.19298227
C 0.5234641 0.09499426 0.4352178
O 1.1172181 1.1047192 0.14802352
C 0.96291745 -0.76557976 1.6131033
O 0.40554038 -1.7741017 1.9467996
H -1.8494251 -0.15457019 -1.7089483
H -1.2807496 1.387733 -0.98588634
H -0.20199364 0.46369454 -2.0641246
H 1.8534846 -0.3471921 2.120766
