11

O -0.05297106 -0.85178763 1.36762018
C -0.01844484 0.21796181 0.50382578
C 0.17288493 0.31525728 -0.92083848
N 0.47967741 -0.83034594 -1.68384224
C -0.88021037 0.30959366 1.65596120
O 1.11843621 0.85428979 0.09080670
H -1.94950582 0.13315261 1.56698740
H 0.91922179 -1.54524821 -1.12155337
H 1.05603262 -0.61304822 -2.48696354
H -0.29172160 1.11864740 -1.48794492
H -0.55339932 0.89152741 2.51594110
