9

N -0.6948329 -1.7301656 0.72123325
C -0.040288355 -0.7580754 0.26552823
O -0.45810843 -0.009372823 -0.8149711
C -0.31082004 1.3518045 -0.78337204
O 0.06414503 1.9813731 0.15681472
C 1.284663 -0.46690986 0.79015946
N 2.3509555 -0.28618208 1.195472
H -1.5839686 -1.8285445 0.23211321
H -0.6117449 1.746073 -1.7629777
