9

N -0.7558855 -1.5038942 2.0047994
C -0.71983504 -0.29651242 -0.30853367
O 0.49095288 -0.3660639 -0.99187165
C 1.6241696 0.20875512 -0.55891347
O 1.3185238 0.8691663 0.5507632
C -0.73611194 -0.95408785 0.98908573
N -1.7680832 0.18014602 -0.80608857
H -1.5794249 0.55799145 -1.7361274
H 2.1256945 1.3044996 0.85688645
