11

N 0.4611039 0.3344804 -2.9246109
C 0.35979432 0.6301148 -1.8136209
C 0.20903558 0.96837634 -0.39198947
C -0.5992208 -0.08745382 0.34136194
C 0.059982795 -1.1824735 1.053943
O -0.47580373 -0.06335515 1.7487273
H -0.2812743 1.9452295 -0.30848166
H 1.1973935 1.0586932 0.06964864
H -1.6136979 -0.23437919 -0.027494404
H -0.46492514 -2.1236994 1.2055824
H 1.1476117 -1.2455331 1.0469337
