11

N 2.0344336 1.6690228 1.1509167
C 1.5516353 0.6911688 0.7601784
C 0.89791346 -0.519141 0.26141104
C -0.67121553 -0.36377963 0.20322333
C -1.1458066 0.53707564 -0.8146412
O -1.2490256 -1.398654 -0.4094708
H -0.7215035 0.48515117 -1.8186495
H -2.0367157 1.1444004 -0.6969056
H 1.1477244 -1.3729806 0.8988815
H -1.0494063 -0.1333501 1.2196934
H 1.2419666 -0.73891383 -0.75463736
