11

N 1.0690421 0.6401994 0.2006918
C -0.18454301 -0.07918112 0.90519094
O -0.27395758 -0.11647641 2.1155083
C 0.80400264 -0.2455403 -0.80555
C -1.1808105 0.31962323 -0.20961975
O -0.3941899 -0.054304447 -1.3549836
H -1.3235682 1.4032855 -0.17077868
H 1.8967578 0.37628683 0.72765493
H 0.16349106 -1.2631087 0.26196492
H 1.5437121 -0.74959517 -1.4289536
H -2.1199365 -0.2311886 -0.24112533
