11

N -0.24958561 -0.94256626 -0.49497871
C 0.95371985 -0.61875541 0.06469133
O 1.91354311 -1.33964435 0.21454705
C 0.80471197 0.84246286 0.46792265
C -1.22100796 0.11705237 -0.34025674
O -0.44088658 1.25805561 -0.05576559
H -1.78509406 0.29818683 -1.25905290
H -0.49360746 -1.89870248 -0.69578974
H 1.60556021 1.45916696 0.05167160
H 0.83459033 0.91915106 1.56392051
H -1.92194374 -0.09440696 0.48309072
