11

N -0.7084248 1.4629446 1.976421
C 0.31334984 -0.5825252 -0.7451922
O -0.54900867 -0.35556275 -1.6744572
N 1.1637722 -1.4573748 -1.2152884
C -0.7270742 0.93960583 0.82442683
N 0.26232335 0.024457231 0.46921042
H 0.9629345 -0.17849185 1.1675371
H 1.9538099 -1.8473334 -0.7268201
H 0.26983932 -1.215478 -2.178668
H -1.447036 1.1113294 0.022616876
H -1.4944855 2.0984285 2.080214
