11

N -1.2713506 -1.3360887 0.17999305
C 0.8108518 -0.36299813 -1.0536658
C -0.26992828 0.56112134 0.769355
N 0.48340908 1.4954427 0.006453724
N 1.1434865 0.91710526 -0.98745275
C -0.19214793 -0.61148167 -0.06861352
H 1.195496 -0.9820763 -1.8514289
H 0.7468012 2.4286761 0.26513952
H 0.13135347 0.4216507 1.7786685
H -1.2668556 -2.3423517 0.035816185
H -1.5111154 -0.18899958 0.9257349
