11

N 1.0622265 0.66207635 1.6202487
C 0.4952497 0.19460873 0.58383
C 0.97772527 -0.6492182 -0.5147581
N 0.045086384 -0.95457816 -1.3517953
N -1.1500368 -0.49171624 -0.8974446
C -0.95659447 0.43057874 0.22736788
H -1.7673808 -0.22675821 -1.6494381
H -1.1150005 1.4750317 -0.06892494
H 1.9901037 -1.0070543 -0.6561322
H -1.6205301 0.19096246 1.0621972
H 2.0391517 0.3760672 1.6448494
