10

N 0.97518796 1.4200526 0.55740875
C 0.2580613 0.319626 0.101307206
N 0.2461593 -0.026150681 -1.1808676
N -0.4720444 -1.1433263 -1.1868263
N -0.93833697 -1.5492765 -0.030203452
C -0.48610792 -0.63471895 0.82494444
H 0.50208974 1.9505357 1.2746481
H 1.2564201 2.0221941 -0.2057906
H -0.6437885 -1.655795 -2.0366836
H -0.6976407 -0.7031409 1.8820632
