10

N 0.41248158 0.6226961 1.1047149
C 0.055793796 -1.1441735 -0.3247356
N 0.6776543 -1.6203992 0.7815628
N -0.7259001 0.8066023 -1.1967354
N 0.850827 -0.5437529 1.5612111
C -0.06762324 0.20767899 -0.055519275
H 1.2946103 -0.60457647 2.4633853
H -1.6571813 1.1838641 -1.0268934
H -0.1631809 1.4617144 -1.7371446
H -0.6774816 -0.3696537 -1.5698458
