10

O -0.23844239 -0.16662599 2.0280738
C -0.10500098 -0.03315263 0.69038284
C 0.7040487 -0.6149001 -0.25837192
C 0.29275385 0.006162714 -1.4644591
N -0.67440885 0.8856955 -1.2791255
N -0.90371877 0.84591645 0.05181814
H 0.39196452 -0.8270462 2.3374417
H 1.4656111 -1.366445 -0.108631134
H 0.67527264 -0.1659381 -2.4614594
H -1.6080799 1.4363332 0.46433046
