10

O 0.67021026 -1.53262055 -0.62293874
C 0.04986198 0.24451411 1.22365850
C 0.54581188 -0.27543856 -1.01347096
C -0.10507757 0.71167486 -0.27394449
N -1.21494584 0.29757182 0.64779276
H 0.47317612 -1.54080745 0.34609209
H 1.02885771 -0.07120081 -1.96768650
H -1.60273810 -0.60042052 0.36471855
H 0.30410601 1.02941070 1.91664901
H -0.14926235 1.73731614 -0.62087012
