10

O -0.66863877 1.4391629 0.71717095
C 0.6646648 -0.7196878 0.7140063
C -1.0103506 0.56009346 -0.18587622
C -0.10785604 -0.4341918 -0.6440621
N 1.3048757 -0.20486353 -0.4640327
H -2.0555766 0.6169491 -0.50425243
H 1.4769648 0.79749686 -0.39812222
H 0.8192392 -1.791051 0.8550328
H -0.0096262805 0.90548843 1.2870026
H -0.4136959 -1.1693965 -1.3768672
