11

N -0.4251125 -1.6480913 -1.0623116
C -0.23635551 -0.48829824 -0.35755596
C 1.0141845 -0.13207407 0.20159766
N 1.1640525 1.0154154 0.8229378
C 0.06469908 1.7897135 0.8727398
N -1.1212254 1.491691 0.3727983
N -1.2770289 0.32509515 -0.24935813
H 0.1777446 -2.4298613 -0.86790806
H -1.3905394 -1.8832514 -1.238173
H 1.8784082 -0.7903341 0.13305578
H 0.15117295 2.7499955 1.3721775
