11

N -0.80322169 -1.39729752 -1.01165422
C 0.44337989 -0.69864515 -0.83480017
C 0.39888603 0.24941832 0.30237040
N 0.23042380 0.77707293 -0.99846639
C -1.60756741 -0.54025821 -0.53499735
N -0.97331969 0.67004264 -0.08639907
N 1.24943363 0.71332689 1.28280045
H 1.36674374 -1.11650575 -1.22052712
H -2.68403750 -0.64006801 -0.44316467
H 1.12420276 0.26147324 2.17990670
H 1.25507656 1.72144077 1.36493152
