9

O 2.503198 -0.30963326 -0.05160357
C 1.4275453 0.21747819 -0.13187039
C 0.21080074 -0.23496148 0.6652314
C -1.0240737 -0.09456357 -0.10657019
C -2.0115097 0.04112408 -0.77975136
H 1.2548447 1.0960437 -0.78925073
H 0.15955292 0.39454514 1.5636456
H 0.37328136 -1.2652383 1.0002166
H -2.8936396 0.15520541 -1.3700473
