11

C -0.8401761 -0.13957804 -0.7124859
C 0.40354806 -0.92778325 -0.29300526
O 0.6578135 -0.4305576 1.0104227
C 0.35222426 0.93331796 0.9228891
O -0.7412696 1.0676378 0.03355306
H -1.7639953 -0.6598985 -0.43643025
H -0.8615503 0.08203119 -1.7854422
H 0.25182933 -2.0065088 -0.2296855
H 1.2525474 -0.7154895 -0.9601682
H 0.076367274 1.2961308 1.9173235
H 1.2126615 1.5006981 0.53302896
