11

C -0.41369602 0.3454423 1.7359368
C 0.26864323 -0.74218804 -0.24381873
O 0.59237385 -0.21041326 1.0537684
C 0.19744225 0.35136443 -1.2960778
O -1.5550807 0.42837277 1.3663644
H -0.030481583 0.71129423 2.7002838
H 1.1249713 0.9316806 -1.3149222
H -0.67459893 -1.2928841 -0.17384136
H 1.0808129 -1.443449 -0.45011038
H 0.05218546 -0.09999501 -2.2832575
H -0.6425719 1.0207751 -1.0943241
