11

C -0.27808657 0.18879337 -1.31502217
C 0.46100645 -0.62999041 -0.27026844
O 0.86864154 0.17922782 0.84790766
C -0.07048644 0.44856830 1.76004803
O -1.21082614 0.06774058 1.73148543
H -1.23117293 0.54517398 -0.91620112
H -0.48037823 -0.43473773 -2.19231100
H -0.15333540 -1.45726391 0.09861012
H 1.40024579 -1.02623576 -0.66366625
H 0.37074183 1.07272038 2.55151368
H 0.32365011 1.04600356 -1.63209592
