11

C -0.20531395 0.67885005 -1.102053
C 0.7829269 0.035073765 0.7634566
O 0.049951375 -0.45898092 -1.6521364
C -0.46556354 -0.77875763 0.5061944
O 0.69581217 1.1531239 -0.09037939
H -1.2938719 -0.6584538 1.2161971
H -0.5194985 1.5342835 -1.7194352
H -0.39648882 -1.7628051 0.06899098
H 0.83002156 0.40216592 1.7975084
H 1.6594778 -0.5822 0.53681535
H -1.1374532 0.43770042 -0.3251588
