12

O 0.40866721 1.50286174 -1.05154184
N 0.91701658 1.80143363 0.52076867
C 0.27830541 0.66372671 0.14316284
C 0.72415444 -0.80240622 -0.00298260
N -0.69516984 -1.17613120 -0.16558748
C -1.14424975 0.13360074 0.35616696
H 1.26016545 1.29455334 -1.47497484
H -1.39153483 0.14790132 1.42561658
H 1.20235630 -1.14513062 0.92449599
H -0.98625529 -1.96949578 0.39444203
H -1.94414578 0.61185075 -0.21782092
H 1.37069014 -1.06276456 -0.85174535
