9

O 0.8132997 -1.6745994 -0.76497185
C 0.2685903 -0.56231713 -0.24816042
N -0.3080426 -0.5130262 0.9411323
N -0.6887579 0.75794876 1.0237885
N -0.40922338 1.5273829 -0.005329494
C 0.21203923 0.7074821 -0.84929866
H 0.6995994 -2.3898628 -0.12615621
H -1.1670477 1.1099473 1.8378692
H 0.57954293 1.0370448 -1.8088733
