12

O 0.8703885 1.9648794 -1.2832005
N 1.0096011 1.4107822 -0.004870937
C 0.3097467 0.3649832 0.10485686
C 0.13713662 -0.60756576 1.2422538
N -0.56046724 -1.5155704 0.29588345
C -0.5876038 -0.47980806 -0.77013004
H 1.4626181 2.7245963 -1.2408117
H -0.48817182 -0.21971199 2.056539
H 1.0544931 -1.0275677 1.6655195
H -1.4827607 -1.7909818 0.61149997
H -1.5667889 -0.019134974 -0.95529926
H -0.15819186 -0.80490047 -1.72224
