12

O 1.8465184 0.016369402 -1.0443723
N 1.7638965 -0.86549145 0.25999177
C 0.58623457 -0.2978881 0.10403107
C -0.022038352 1.0979344 0.31994128
N -1.3607041 0.51346606 0.07114491
C -0.8345755 -0.86329633 0.06375285
H 1.739706 -0.6928153 -1.688697
H -1.0908624 -1.4526085 -0.824021
H 0.27334788 1.8816401 -0.37996647
H -1.0348358 -1.4705117 0.9585975
H 0.16017419 1.438964 1.3472807
H -2.026862 0.6942373 0.81231695
