12

N -0.96692145 0.97027725 -0.68830526
C 0.56579065 0.67089474 1.3563166
N 0.12844595 -0.88966817 -1.8509548
C -0.2445556 -0.17154923 -0.71161205
C -0.29061097 -0.3814481 1.556448
C 0.36320165 1.0781376 -0.009794101
N -0.9158558 -0.76648694 0.431346
H 0.9667087 1.854788 -0.47307625
H -0.60502046 -0.8714318 -2.5492907
H 0.38685495 -1.8445802 -1.6324996
H 1.2238895 1.1514751 2.0661829
H -0.61192715 -0.800408 2.5052392
