11

O 0.24768023 -0.32002294 -2.504004
C -1.0239894 0.17266616 0.6861251
C 1.4584159 0.47713542 0.28393504
C -1.1510636 0.30043668 -0.6377177
N 0.29366377 -0.08535005 1.0670843
C 0.048340324 -0.20099567 -1.3236959
N 1.101664 -0.64949644 -0.3934558
H -2.0390847 0.5964503 -1.1779344
H -1.7749679 0.25317088 1.4645935
H 0.45982704 -0.8872584 1.6700523
H 2.3795142 0.34326392 0.8650178
