11

O -0.28000292 1.640697 2.1656375
C -0.21412286 0.8671196 1.2338784
C 0.75546527 1.020467 0.13623205
C 0.78067946 0.1366078 -0.8717304
N -0.10421204 -0.9210486 -0.87639725
C -0.9928891 -1.0449467 0.1530284
N -1.087005 -0.24711019 1.1517856
H 1.4377819 1.860352 0.16827096
H 1.4635903 0.1863613 -1.7133743
H -0.102396876 -1.5936449 -1.6240845
H -1.6568881 -1.9048547 0.07675334
