11

N -0.046364333 1.5219384 0.6572853
C -1.1498563 -0.1083559 -0.06572077
C 0.22541776 -0.46976337 -0.1803363
N 0.69514626 -1.6313456 -0.80471545
N -1.3336228 1.0857981 0.45270097
C 1.0259556 0.5202758 0.3853749
H -2.0140355 -0.6890984 -0.3743014
H 1.6789649 -1.76468 -0.6120945
H 0.09102592 2.2643025 1.3323483
H 0.17914478 -2.462257 -0.5456545
H 0.648224 1.7331854 -0.24488659
