11

N -0.88828410 -1.72855490 0.59129439
C -0.27247085 -0.61206425 0.06844898
C 0.29248723 -0.69592293 -1.33721193
N 0.77298233 0.47148040 -1.62628604
N 0.57088609 1.38113314 -0.46504299
C -0.10416542 0.60697056 0.58055944
H -0.35909844 1.08447441 1.51848654
H -0.86119731 -1.85535261 1.58828455
H -0.66640176 -2.56228420 0.06948109
H 0.02504315 2.17915358 -0.80277268
H 1.49021910 1.73096660 -0.18524148
