11

N 1.0825645 0.82174 -1.2717701
C -0.43756065 0.49558553 0.52843976
C -0.10570812 -0.66397053 -0.038951952
N 0.29465306 1.5213634 -0.21985799
N -0.530186 -1.9478096 0.22698115
C 0.867594 -0.45233443 -1.183498
H -0.31256813 2.192601 -0.6989874
H 0.9528657 2.053821 0.35380614
H 0.057343036 -2.639258 -0.21271668
H -0.7803361 -2.172124 1.1745616
H -1.0886614 0.7903851 1.3419931
