11

O 2.4931016 -1.1796718 0.47744957
C 0.2985019 -0.31400177 0.22033364
C -1.0895972 -0.47129783 0.11756744
C 1.3036461 -1.3472009 0.5367604
N 0.6215246 0.97048515 -0.05908704
C -0.6376638 1.524095 -0.4054992
N -1.6687205 0.66095585 -0.27723834
H 0.86429 -2.3216548 0.83897525
H -1.6659049 -1.3733495 0.29715136
H -0.75671756 2.602231 -0.4699293
H 0.23753963 1.2494093 -1.2764838
