11

O 0.96032308 0.82875005 -2.60806671
C 0.62028884 -0.10190498 -1.92871477
C 0.17342132 0.03257455 -0.51037073
C -0.38801271 0.77037164 1.44422983
N 0.08958425 1.13981896 0.12439799
C -0.23299817 -1.08981251 0.35334411
N -0.56345308 -0.66903230 1.51594159
H 0.61783931 -1.14203767 -2.31674050
H 0.32720430 1.10355776 2.20410576
H -1.34257269 1.26845041 1.64748934
H -0.26162448 -2.14073622 0.07438375
