11

O -0.7207312 2.2963886 -1.6180868
C -0.44661087 -1.0784544 -0.065622725
C 1.0918653 -0.306301 1.242512
C -0.21369702 0.34762156 -0.3537049
N 0.3230021 -1.481447 0.874155
C -0.9394456 1.1367606 -1.3929468
N 0.69751513 0.8165154 0.4116585
H -1.7076771 0.5645611 -1.9540654
H -1.1647719 -1.7276552 -0.5614675
H 2.1630068 -0.5001724 1.1199169
H 0.91754425 -0.06781735 2.2976515
