9

O 2.16074334 0.37193027 0.38898986
C -0.59568100 0.05344592 -0.36429625
C -0.05504498 -0.46696731 0.71472785
C 1.37272385 -0.26359298 1.05303294
C -1.15026886 0.56189610 -1.42452448
H -1.16024797 0.01824388 -2.36530188
H -0.65358420 -1.06862912 1.39619304
H 1.68480451 -0.75498879 1.99839605
H -1.60344448 1.54866195 -1.39721722
