10

C 0.36781646 -0.23216517 0.86078112
C -0.06795393 0.89627766 0.34108708
N -0.37472982 -1.81045628 -2.07258937
C -0.49737998 2.01646627 -0.16339672
N -0.00402248 -1.69387726 -1.00553400
C 0.41144009 -1.53568577 0.21349286
H 0.74433002 -0.22237802 1.88154839
H 0.17052879 2.68984368 -0.69559472
H -1.53629956 2.31778750 -0.05895649
H 0.78627050 -2.42581299 0.69916203
