10

C -0.37712783 1.2797885 -1.600043
C -0.504319 0.6835286 -0.4502475
N 2.1447616 -1.7642103 0.03688731
C -0.64213973 0.08540464 0.7144903
N 1.247193 -1.3911628 0.62410784
C 0.21463668 -0.9501548 1.274492
H -0.85801715 0.8877552 -2.4922938
H -1.4750857 0.37532136 1.3516507
H 0.20483981 2.192825 -1.702278
H 0.045258295 -1.3990953 2.2432346
