10

N 0.9405014 -0.1636493 -1.9320182
C 0.49381602 0.036161367 -0.787066
C -0.59052336 -0.033939715 1.2827935
C 0.6217993 0.8774389 1.3860201
C -0.6914512 -0.52609044 -0.09741236
O 1.1283457 0.89797676 0.16567157
O -1.5244582 0.5348603 0.3570323
H 1.7980742 0.35949177 -2.1013124
H -1.0131316 -0.5358948 2.1458638
H -1.1629722 -1.4463549 -0.4195722
