10

N 0.80198049 -1.10180095 -1.66939520
C -0.64028045 -0.53139759 0.26837023
C -0.48444252 0.61158465 1.17758588
C 0.63411597 1.49870807 0.65525277
C 0.42612680 -0.35604129 -0.74584542
O 1.04137385 0.90430579 -0.45248752
O -1.53890207 0.57083825 0.20843350
H -1.03980129 -1.50559476 0.52200120
H -0.78715883 0.61346628 2.21864605
H 1.58698816 -0.70406824 -2.18256171
