10

N 0.6789916 0.33454254 -2.0191178
C 0.31207538 -0.8029088 0.08248436
C 0.2057253 0.32822406 -0.8475579
C -0.8201354 0.90075034 1.0973966
C 0.016617967 -0.32015976 1.3985759
O -0.42953092 1.3479339 -0.19666183
O -1.3303971 -0.44253913 0.83438075
H 0.20317978 -0.79455876 2.3516974
H 0.5054096 1.2313424 -2.4741106
H 0.65806365 -1.7826265 -0.2270867
