10

N -1.5387145 -1.4225528 0.7506297
C -0.68243915 -0.6403205 0.26592323
C 0.14283594 0.33304417 1.0093523
C 0.925836 0.964899 0.13499168
C 0.6375475 0.4217631 -1.2167503
O 1.1059598 0.6974186 -2.2788026
O -0.34504744 -0.54508865 -1.0706831
H -1.9722679 -1.9949139 0.026270682
H 0.06264516 0.4472857 2.081449
H 1.6636447 1.7384655 0.2976192
