10

N -1.0532486 0.017625155 0.8191321
C -0.509908 -1.0315193 -0.0057265325
C 0.69680625 -0.599803 -0.57964665
C -0.20165089 1.0539247 0.65150326
C 0.8883442 0.71383435 -0.14999276
H 1.3416141 -1.1847357 -1.2222749
H -0.9000783 -2.035756 0.10588856
H -0.43229574 2.0143123 1.0941813
H 1.71417 1.36322 -0.4135284
H -1.543753 -0.31110245 -0.2995358
