10

N -1.4794405 -1.0889113 0.50038576
C -0.9097596 -0.034220923 -0.17780772
O -1.5166214 0.7473005 -0.86400646
N 0.49269226 0.001670752 -0.027146356
C 1.2690783 0.9987454 -0.5075259
O 2.5495164 0.83297557 -0.30934307
H 0.99509776 -0.7709701 0.40618435
H 2.124197 1.8024892 -0.8786639
H -1.0370768 -1.436132 1.3376114
H -2.4876833 -1.052947 0.52031165
