12

C -1.569403 1.7946959 0.3076844
N 1.1350465 -0.67222613 -0.1080355
C -0.11184677 -0.076477446 -0.22308585
N -0.32338384 1.1418036 0.15627308
C 1.3727291 -2.0085754 -0.280028
O 2.4609408 -2.5283241 -0.17634909
H 1.9307346 -0.08995063 0.12011313
H 0.45098314 -2.5675685 -0.52789986
H -2.4738078 1.3172551 -0.06686089
H -0.90444237 -0.6784812 -0.66352427
H -0.4822427 1.4954807 1.2242042
H -1.4853072 2.8723683 0.23750857
