12

C 1.4502722 -1.1390395 -1.1412851
N 0.6043943 -1.0272344 -0.079094335
C -1.7966137 1.2825598 0.46159074
N -0.7944908 0.9197277 -0.21457149
C 0.27335542 0.24505427 0.51691794
O 1.5803291 -2.1409407 -1.8090396
H 2.0402267 -0.21808116 -1.306998
H 1.1632768 0.8837128 0.457949
H 0.041166656 0.0885089 1.5819468
H -0.0452418 -1.7932601 0.031677775
H -2.6151633 1.7991625 -0.04012408
H -1.9015119 1.0998298 1.5410302
