12

O 0.28734559 -1.33125450 1.10313217
C -0.68757631 0.09614547 1.14272772
C 0.14193847 1.03165533 0.34229188
O 0.32436602 -1.05066285 -1.47906934
C -0.12288322 0.03523372 -1.80908618
O -0.25518488 1.10556232 -1.06868021
H 0.43307996 -1.40402503 0.11210257
H -0.41744772 -1.98105797 1.27474969
H -0.42621294 0.33709066 2.18375316
H 1.23379814 0.87312719 0.35554984
H -0.05773417 2.05068003 0.67866447
H -0.45348889 0.23750533 -2.83613615
