12

O -1.2613776 -0.6632398 1.236391
C 0.12661777 -0.48468181 1.1844629
C 0.5833918 0.7034063 0.34409896
O 0.85434246 0.40111586 -1.0459965
C -0.14842516 0.026170619 -1.8276846
O -1.2879163 -0.19239809 -1.4895301
H -1.5824153 -0.6338781 0.32077393
H 0.66195565 -1.3835784 0.8350232
H 0.4509378 -0.29651192 2.214154
H 1.550936 1.0718344 0.6930474
H -0.15867727 1.5052096 0.39706224
H 0.2106302 -0.05344896 -2.8618028
