9

N 1.4924568 0.9896408 0.07039463
C 0.23075052 0.76353145 0.43993998
N -0.26511723 -0.36556837 -0.14145483
C -1.5699859 -0.77616644 0.11228564
O -2.057938 -1.7622256 -0.37707308
H -2.0811207 -0.09059742 0.8047042
H 0.25165713 -0.97481996 -0.78249204
H 2.0408664 0.41433004 -0.56750524
H 1.9584317 1.8018756 0.44120076
