9

N 1.2663808 -0.15322718 -1.5666615
C 0.22114179 -0.022823216 -0.86291635
N 0.29414812 -0.033520892 0.52254546
C -0.7848273 0.091178976 1.3662353
O -0.7115601 0.07258212 2.5704298
H 1.0436466 -0.12339421 -2.555034
H -0.80124044 0.1053592 -1.2345628
H 1.210582 -0.1471258 0.93942744
H -1.7382714 0.21097103 0.82053614
