9

O 0.1724206 -1.3647686 -1.7796617
C 0.15932247 -0.22964558 0.76627785
N -0.016795535 -1.1397923 1.622533
O -0.63727725 0.21841988 2.1219885
C 0.37854528 0.50214326 -0.33195823
C 0.3746309 -0.1786128 -1.6208134
H 0.5685463 0.49376088 -2.4802961
H 0.59026515 1.5577847 -0.23009264
H -1.5896579 0.14071038 1.9320225
