10

O 1.6638793 0.35421744 -2.1025372
C -0.28174034 -0.17452113 -0.32704976
O 0.87627643 0.40308213 0.03955261
C 1.8027679 0.63464034 -0.9537819
C -1.0361638 -0.13036534 1.9579874
C -1.2549525 -0.44529152 0.5896043
H -2.1460142 -0.91194427 0.16277286
H -0.36489332 -0.39782938 -1.387914
H 2.6751933 1.1200981 -0.50130516
H -1.9343528 -0.4520863 2.5226707
