10

C 0.59692156 1.385491 -0.5818385
O -0.40207052 0.38185686 -0.38680953
C -0.030156529 -0.6242291 0.4288907
O 1.0504045 -0.7126973 0.961221
N -1.0641878 -1.503431 0.58279127
H 0.8526298 1.8656474 0.36603597
H 0.14678462 2.1085205 -1.2640154
H 1.5005453 0.9560699 -1.0212716
H -1.8270783 -1.4641471 -0.073218055
H -0.8237926 -2.3930814 0.98821425
