10

C 0.7529921 0.3612655 -0.29966778
O -0.45955905 -0.053826977 -0.6762987
C -1.347568 -0.6045813 0.30137944
O 0.99945194 0.17510343 1.0156494
N 1.6279129 0.8816839 -1.0538434
H 1.2814171 0.9584592 -2.004087
H 1.8991708 0.51479614 1.1388758
H -0.9173677 -1.4933326 0.76934946
H -2.2435136 -0.8725945 -0.26091734
H -1.5929368 0.13302739 1.06956
