11

C 1.638733 0.6422364 1.1411686
N -0.6341553 0.8480161 0.68863636
C -0.9829864 -0.73808306 -1.038115
C 1.2235999 -0.21572886 0.11683914
N -0.11036983 -0.050321423 -0.10621832
N 0.42194018 1.2206793 1.3939774
H 0.2443605 1.9378049 2.08504
H -1.5727835 -1.4898518 -0.5085825
H -1.6487405 -0.010052064 -1.5025072
H 1.7847071 -0.92538023 -0.4738501
H -0.36430535 -1.2193192 -1.7963881
