11

C -1.16622261 -0.89311535 -0.65649175
N -0.13310090 -0.07647316 -0.04931613
C 0.98241180 0.46959405 -0.60970127
C 1.71422330 1.15137246 0.36872648
N 0.88243993 0.89222306 1.42706067
N -0.21368403 0.17645439 1.23235836
H 1.02186410 1.21283824 2.37634355
H -2.13861519 -0.56511533 -0.28799968
H -1.01001133 -1.94273275 -0.39702523
H -1.11189741 -0.76695240 -1.73837171
H 1.17259264 0.34190670 -1.66558352
