12

C -0.8712389 0.13370642 -0.03716147
N 2.4128847 -1.1024318 -0.71475554
C -1.370942 1.1744121 0.9405512
N 0.49703616 -0.06541039 -0.006508462
C 1.1519306 -0.9971459 -0.7977835
O -1.5984033 -0.4973089 -0.7752833
H 2.7431774 -1.8234862 -1.3513639
H -1.5196505 0.7056972 1.9197509
H 0.47304717 -1.5661844 -1.4351808
H -2.331107 1.5502131 0.5878493
H -0.66691494 2.004754 1.0584214
H 1.0801805 0.4831842 0.61146426
