12

C -0.7667195 1.1753201 0.004076262
N -0.18291898 -0.15222901 -0.14324498
C 1.0645525 -0.4112669 0.40212458
N 1.7051814 0.48523158 1.0299579
C -0.8564719 -1.1472666 -0.8190831
O -1.9419402 -1.0224477 -1.3316242
H -1.741065 1.1578912 -0.4856144
H -0.115946665 1.9220709 -0.45750374
H -0.8702653 1.4174967 1.0644819
H 1.4011242 -1.4425663 0.22495365
H 2.5903845 0.113457136 1.3547184
H -0.2859152 -2.0956907 -0.8432425
