12

C 0.0875384 0.9969899 -0.05229234
N -0.14391366 -2.2332942 1.0304043
C 0.020495154 1.4221604 -1.5013059
N -0.024337757 -0.3705006 0.11853243
C 0.005376219 -0.9787266 1.3079137
O 0.22396341 1.7694639 0.8774563
H 0.12752455 -0.49011648 2.2690198
H 0.7924223 0.9128045 -2.0870168
H -0.17071398 -1.703702 -0.18356122
H -0.13021767 -2.9777172 1.7114846
H 0.16122551 2.5022316 -1.5592651
H -0.9493626 1.1504065 -1.9313697
