10

N 1.4788353 0.49841827 0.92273444
C 0.22330281 0.6229844 0.37561288
O -0.4466727 1.6305993 0.4389905
N -0.23101985 -0.5472759 -0.23313142
C -1.4588594 -0.6395809 -0.8701098
O -1.8561608 -1.669608 -1.3566564
H 1.878563 1.3721515 1.2280804
H 2.1277318 -0.17032947 0.53447527
H 0.28953242 -1.409968 -0.16439207
H -2.0052524 0.31260848 -0.8756035
