10

N 1.27682083 0.14051003 0.59911129
C 0.07158185 0.34295979 0.27380403
O -0.61310535 -0.50791921 -0.55735726
N -0.77331347 1.36998226 0.61313588
C 0.06674115 -1.51952010 -1.17788166
O -0.50950152 -2.29009616 -1.88158085
H 1.64018513 0.87289524 1.19883818
H 1.14252885 -1.51535754 -0.95792627
H -0.54580433 1.89150582 1.44332053
H -1.75613295 1.21503955 0.44653642
