10

N 1.6034846 -0.7105841 0.34656066
C 0.38986066 -0.21175976 0.03919249
O -0.36367172 -0.8080326 -0.82876015
N -0.22090112 0.8516159 0.48097768
C -1.5443611 0.36008137 -0.6578017
O -1.7874788 1.0465964 -1.5957289
H 1.8585865 -1.6049876 -0.039763726
H -2.228926 -0.125171 0.043300845
H 2.1060941 -0.36730692 1.1465079
H 0.18731262 1.5695484 1.0655148
