13

C 0.20088616 -1.5217639 -0.5989454
C -0.20438004 -0.056539282 -0.58422834
O -1.5703608 0.13559954 -0.22796348
C 0.7368169 0.76945734 0.3026311
O 1.9429283 0.623752 0.26082352
N 0.09529795 1.6536269 1.1105222
H 1.2498527 -1.6187621 -0.8859214
H -0.42589927 -2.0777671 -1.3044051
H 0.0838426 -1.9664942 0.39831024
H -0.112599775 0.35980445 -1.5929028
H -1.7582415 -0.43771273 0.5259358
H -0.8895821 1.8147358 0.97247785
H 0.65143883 2.3220632 1.6236658
