13

C 0.18763936 -1.39398328 0.07638959
C -0.01377129 -0.31304643 -0.69543113
O -0.50567296 0.89775696 -0.32053570
C -0.68386597 1.11926965 1.06387522
O 0.50763954 1.25839395 1.75567479
N 0.19795584 -0.28550492 -2.06809604
H 0.75498127 -1.04937798 -2.41376989
H -0.08105110 -1.41137227 1.12429989
H 0.59435064 -2.29888158 -0.35939622
H 0.51134236 0.61760179 -2.40086775
H -1.31206581 0.31805307 1.47599045
H -1.20138463 2.07393013 1.13915492
H 1.04390271 0.46716083 1.62271185
