10

N -1.5358593 -1.4214596 0.7521756
C -0.67963046 -0.6418748 0.26482984
C 0.14500095 0.33456618 1.0102981
C 0.9247389 0.96578175 0.13677827
C 0.6369859 0.41948605 -1.219748
O 1.102184 0.6964211 -2.283022
O -0.3428733 -0.54918104 -1.0709202
H -1.970659 -1.9951842 0.030166382
H 0.060199335 0.4486377 2.0826557
H 1.6599131 1.7428067 0.29678622
