10

N -1.6531084 1.3017349 0.4859607
C 1.1467109 -0.5228295 -0.65839297
C 0.27021793 0.49975857 -0.74603367
C -0.7631753 0.42481026 0.31295994
C 0.43180037 -1.4907033 0.48558804
O 1.4890285 -0.7855291 0.8232139
O -0.6917934 -0.78092283 0.9635207
H 0.1557353 1.1976517 -1.5670938
H 1.8827887 -0.8895837 -1.3571041
H -2.2682045 1.0456127 1.2573813
