10

O 1.312472 -0.8746858 -2.0931036
C 0.012127741 0.7716998 0.57259727
C -0.2835877 0.15657698 -0.70263076
N -1.3112292 0.67506325 -0.2093184
O -0.41681874 -1.1985054 1.8322299
C 0.1537526 -0.60907805 -1.8931302
C 0.08778611 -0.10331963 1.7873143
H 0.6452027 0.32470468 2.6438658
H -0.6626864 -0.90180725 -2.5746422
H 0.4629809 1.7593515 0.6368184
