9

N -0.58880234 0.7638456 0.86743814
C 0.8492954 -0.033557452 -0.6712925
C 0.60411114 0.9498504 0.2864435
N -0.22908466 -0.8452696 -0.76053935
C -1.0855608 -0.32656616 0.25862262
H 1.7346387 -0.22091131 -1.2629019
H -0.41681314 -1.407249 0.38208637
H 1.254752 1.7622571 0.5882603
H -2.1225362 -0.64239955 0.31188276
