10

N 1.3230194 -0.6719284 -1.0111439
C 0.3265807 -0.041280214 -0.33623067
C -1.4293265 0.89882207 0.53723884
N -0.92567325 0.7494896 1.6342796
C -0.1616548 -0.3789802 0.9108356
O -0.2962609 0.9503726 -0.8857302
H 2.0682378 -1.0902156 -0.48184165
H -2.3746383 1.1412724 0.06501064
H 1.5897825 -0.24883112 -1.8872061
H -0.12006669 -1.308721 1.454788
