10

N -0.31328622 1.72811318 -0.38865547
C -0.24451828 -0.53006639 0.46189633
C 0.51430036 -1.75179976 0.62161394
N -0.48943659 -1.91936053 -0.09899725
C 0.25348202 0.49085574 -0.52090908
O 1.12010105 0.23174881 -1.33196603
H -1.18429926 1.84361380 0.10176401
H -0.92636430 -0.19327910 1.24266893
H 1.35551549 -2.30402151 1.01471157
H -0.08549441 2.40419566 -1.10212712
