11

C -1.03809907 0.76037641 -0.09196945
C 0.13247977 -0.19457502 -0.06696056
C 0.01883274 -1.44713725 0.72824085
O 1.02846726 -0.04083687 1.09187534
C 0.96435433 -0.12517405 -1.27220764
N 1.57302275 -0.12591731 -2.25479282
H -1.70368400 0.47835750 -0.91156029
H -1.59690114 0.65686913 0.84226742
H -0.71367595 1.79447970 -0.24307436
H 0.82243952 -2.11106551 0.36426106
H 0.51276374 0.35462321 1.81392012
