11

C -0.9898658 0.8920479 -0.11778607
C 0.05794574 -0.1954736 -0.17227915
C 0.67602324 -0.7391614 1.0449618
O -0.3128314 -1.4652714 0.33374658
C 0.8400301 -0.24426898 -1.4070616
N 1.4507673 -0.24548458 -2.3871872
H -1.7207551 0.76178604 -0.9205502
H -1.5142255 0.84655255 0.8423796
H -0.5294291 1.8777748 -0.22488418
H 1.6809036 -1.155493 1.0045271
H 0.36143687 -0.33300838 2.004133
