12

O 1.24926797 0.35008223 -1.62281988
C 0.97624344 0.95615691 -0.48088155
C -0.92304811 0.29940722 0.95362384
O -1.85715910 0.13646527 -0.08725485
C 0.47543860 -0.10347935 0.46404398
O 0.37250394 -1.41989114 -0.04277482
H 1.59041528 1.00227082 -2.24786081
H -0.92723021 1.35200635 1.24456359
H 1.16762770 -0.07119411 1.32238474
H -1.17849422 -0.31325565 1.83068095
H -1.72711707 -0.76450992 -0.41356096
H 0.78155164 -1.42405850 -0.92014396
