12

O 1.0444535 1.0997123 -1.01072
C 0.6005011 1.0151026 0.31892395
C -0.44622254 -0.09016611 0.4496939
O -1.491775 0.18802136 -0.44510484
C 0.15559225 -1.4374994 0.11129742
O -0.33049938 -2.1447377 -0.73694515
H 0.23940101 1.1370943 -1.5485322
H 0.15955502 1.9591748 0.66898894
H 1.4735886 0.79362595 0.94285053
H -0.8062938 -0.13559197 1.4914879
H -1.641515 -0.6367896 -0.93659735
H 1.0432141 -1.7479464 0.69465715
