12

O -0.1951387 -2.1386044 -0.29741952
C -0.29976428 -1.0013255 -0.94041765
C 0.45277295 1.2249678 -0.17401664
O 1.641827 0.7197905 0.38735372
C -0.65241003 0.16812219 -0.060867
O -0.7630958 -0.22393805 1.284696
H -1.6006395 0.58455414 -0.43586093
H 0.11472162 2.1410267 0.33013847
H 1.4000866 0.41153288 1.2725382
H -0.6968902 -1.1973612 1.2949028
H 0.6470928 1.4557028 -1.2239263
H -0.048562743 -2.1444678 -1.437121
