10

O -0.79564387 -1.7320613 -0.74548525
C -0.2991005 -0.58732927 -0.23488007
C 0.8643323 0.12349386 -0.42141658
C 0.7113098 1.2353595 0.44544
N -0.432475 1.2123164 1.1012129
N -1.0393276 0.0836099 0.66929144
H -0.15783213 -2.095106 -1.3728362
H 1.6901009 -0.11824257 -1.0736684
H 1.4047486 2.0497098 0.60806656
H -1.9461124 -0.17175049 1.0242757
