10

O 0.46684673 1.67247747 0.70328397
C -0.97434586 -0.48453532 0.47087545
C -0.18189911 -1.40082363 -0.08142324
C 0.05384415 0.54989687 0.05700795
N 0.94321859 -0.51071123 -0.41036657
N 0.25597166 0.47564854 -1.35853651
H -0.22634381 -2.45233146 -0.33556105
H 1.00442684 1.13886817 -1.57548785
H 0.62197324 1.45506127 1.63099953
H -1.96369233 -0.44355084 0.89920841
