10

O 1.6026856 -0.5529482 0.64478683
C -0.04686941 1.1023655 -0.17719267
C -1.2544838 0.5450304 0.091409616
C 0.57949466 -0.24112675 -0.13581677
N -1.109909 -0.836326 0.16412966
N -0.0055465987 -1.1790689 -0.91153806
H 0.32127228 2.0510964 -0.53726125
H 0.3298657 -2.1006508 -0.63430613
H 1.8084478 0.22168478 1.191508
H -2.2249572 0.98994356 0.3042807
