11

C -0.7774584 1.6269779 0.00043125357
C -0.19548859 0.42095286 -0.044750366
C 1.04436 0.027150504 -0.70536846
N 1.3462968 -1.1971228 -0.4700743
N 0.44379658 -1.7067647 0.42252386
N -0.6577942 -0.77695835 0.525317
H 0.09911267 -2.6036565 0.09476873
H 1.6647315 0.65186256 -1.333393
H -1.7220623 1.7874275 0.50664103
H -0.9399314 -0.6987339 1.4952443
H -0.30556267 2.4688652 -0.4913401
