11

C -0.25401807 -0.5605886 1.212485
C 0.66143423 -0.5591173 0.059876967
C 0.042544723 -0.86837316 -1.1696179
N 1.2518518 0.65593696 0.001359766
N 0.118228465 1.3283961 0.3668397
N -0.6171459 0.6597665 1.3877136
H 0.56040996 -0.57147783 -2.0756695
H -0.68927574 -1.3964579 1.743167
H -0.63860667 -1.7117592 -1.2509634
H -0.5892682 0.6869276 -0.7408032
H 0.15384552 2.3367467 0.46561205
