9

O 1.3526367 -0.4792879 -0.65223527
C -0.47939745 -0.4811453 0.9060328
C -0.25097322 1.2883035 -0.7338991
O 0.29183188 -0.89305305 1.7350794
C 0.014615102 -0.15446061 -0.50515366
N -0.47169012 2.4116004 -0.87703955
H -0.5962011 -0.71983814 -1.2249203
H 1.6892875 -0.6604796 0.24251644
H -1.5501093 -0.31163925 1.1096191
