9

O 0.9267428 -1.2584803 -0.57448596
C 0.113137044 0.37982062 0.7825353
C -0.9771626 0.30956867 -0.83003813
O -0.040063128 -0.63158345 1.5379766
C 0.60239446 -0.021316374 -0.55849344
N -2.055179 0.4634671 -1.2228032
H -0.056427445 1.3849467 1.1575977
H 1.1101354 0.74224657 -1.167337
H 0.3764225 -1.3686693 0.8750481
