10

C 0.5950913 1.3867302 -0.5838656
O -0.40232918 0.38329902 -0.385046
C -0.027132016 -0.625153 0.43095273
O 1.0527071 -0.71454996 0.963616
N -1.0602959 -1.5056899 0.5813778
H 0.8500985 1.8700538 0.36324492
H 0.14598863 2.1078193 -1.26847
H 1.497433 0.95514244 -1.0233632
H -1.8289654 -1.4616339 -0.06577545
H -0.8225959 -2.3960176 0.987329
