10

O 0.36549639 1.66197511 -1.43593054
C -0.16647341 0.59623003 -0.85705097
C -0.46632226 -0.08560221 0.41196241
N 1.41933257 -1.57742860 0.71594882
N 0.66018867 -0.75552821 1.16679158
C -0.72736891 -0.56690914 -0.97152785
H 0.56450002 2.32484819 -0.76079209
H -1.10601604 -1.39320971 -1.54211614
H 0.70165543 -0.43591874 2.15927931
H -1.24499257 0.23154309 1.11343550
