10

N 0.60024028 0.71518232 -1.05479803
C -0.17437883 -0.51863990 -1.00769841
C 0.67920453 1.13230516 0.15769422
C 0.00072161 0.26585291 1.13427800
C -0.52514154 -0.74772087 0.43268509
H 0.41746202 -1.33924488 -1.43340436
H -1.09966694 -1.58686019 0.80787739
H 1.20800905 2.04907189 0.40769599
H -0.04655136 0.44178452 2.20207566
H -1.05989867 -0.41173085 -1.64640564
