10

N -0.1585649 -0.7498337 -0.84541065
C 1.0608959 -0.28702536 -0.41910443
C 0.836061 0.59484965 0.6091423
C -0.5714795 0.6654915 0.8091809
C -1.156887 -0.17582935 -0.104244195
H -0.29844284 -1.4106897 -1.589656
H 1.9772583 -0.62367564 -0.8811279
H 1.5918031 1.1337992 1.1632544
H -1.0858805 1.2675574 1.5451237
H -2.1947634 -0.41464388 -0.28715822
