10

N 0.51015174 0.5970954 -1.1694423
C -0.56079465 -0.64031535 0.5455109
C 0.8904249 0.9876269 -0.006153099
C -0.45216715 -0.4736372 -0.94130975
C 0.26260886 0.25652972 1.1056645
H -0.10978079 -1.3872312 -1.444312
H 1.6140292 1.7906299 0.11292386
H -1.4078953 -0.20327 -1.40715
H -1.1966511 -1.3611858 1.0465457
H 0.4500744 0.4337578 2.1577222
