10

N 0.008117173 -1.2372994 -0.506352
C 0.8370299 0.7211835 0.31216198
C -0.519163 0.949708 0.08337437
C -1.0495764 -0.25761712 -0.39569312
C 1.0964288 -0.6105435 -0.013410674
H 1.5541517 1.4338688 0.7005002
H -1.0695062 1.8686746 0.23662655
H 2.022046 -1.1595845 0.106878266
H -0.89276785 -1.2638271 0.3808636
H -1.9867603 -0.4445633 -0.90494925
