10

O 1.6789794 -1.1276263 0.7407014
C -0.3358993 1.6058381 0.014465976
C -0.46318033 -1.0454695 -0.23244451
N -1.5081488 -0.38659653 -0.6432524
N 0.8199763 0.9297644 0.28153718
C 0.67881674 -0.36688647 0.29477662
N -1.4624578 0.93982536 -0.36683673
H 2.3878386 -0.5162784 1.004531
H -1.3464645 2.089822 -0.73437536
H -0.44946018 -2.1223927 -0.35910326
