10

O 1.4495128 -1.2711097 0.8673309
C 0.5483359 -0.4554088 0.32078886
C 0.88426775 0.89595455 0.08581982
N 0.005519939 1.7126943 -0.45141193
N -1.2104104 1.2578526 -0.77508205
C -1.4680679 -0.013110136 -0.5339728
N -0.6384621 -0.9197836 0.008644385
H 1.0319842 -2.1442106 0.94709474
H 1.8584067 1.2990505 0.33602118
H -2.4610868 -0.36192903 -0.8052331
