10

O 1.7124543 -1.7763972 0.828906
C 1.1542742 -1.468241 -0.19598411
C 0.19530027 -0.34090203 -0.26290572
N -0.3933055 -0.04454603 -1.3931535
O -1.1948948 1.0306638 -1.1196183
C -1.069184 1.3592777 0.17741512
C -0.1992962 0.52983856 0.7948567
H 1.3196009 -1.9990565 -1.1522037
H -1.6609489 2.2041876 0.5030025
H 0.13599959 0.5051748 1.8196847
