15

N -1.67657795 0.53204371 1.09965408
C -0.79126200 -0.26907581 0.31436111
O -1.41626688 -1.51151842 0.25833580
N 0.53120779 -0.25133698 0.92654329
C 1.51595511 -0.10838493 -0.13289089
C 0.71669912 0.75095071 -1.10685482
O -0.58921292 0.18871506 -1.01506175
H 0.63790033 -1.05849039 1.52862266
H -0.92472866 -2.05544643 -0.36322260
H 1.80112389 -1.06018379 -0.61138049
H 1.04295653 0.69203563 -2.14771772
H 2.41965659 0.38691545 0.23152503
H -2.61683774 0.46738533 0.73095220
H 0.71085332 1.80094137 -0.78608289
H -1.36146644 1.49544893 1.07321697
