15

N 0.6088286 0.89810824 -0.28749546
C -0.35490346 -0.36211458 1.5179169
O -0.72588503 -1.1659957 0.46344027
N 0.81934977 -0.69756836 -1.9734478
C 0.02911976 -0.032574914 -1.0975326
C -0.10617467 1.0727912 0.9741379
O -1.2556187 0.055435304 -1.398794
H 1.6063838 0.79104394 -0.17516056
H -1.0537863 1.5764263 0.7574053
H 0.49007303 1.7123013 1.6323557
H 1.7286832 -0.9908107 -1.6542032
H -1.5520575 -0.4631473 -0.5433537
H 0.5767808 -0.7113431 2.0057633
H -1.1247536 -0.3055768 2.3033109
H 0.31396008 -1.3769748 -2.5243425
