11

N 0.26666338 0.91343114 -0.43211722
C -0.05196208 -2.09599808 0.66296195
O 0.84956259 -1.23150898 0.30134107
C 0.54772627 0.12362024 0.72094732
C -1.01477116 1.08407735 -0.88790320
O -2.00180828 0.66478800 -0.32789189
H -1.05102544 1.67042122 -1.82406293
H 0.32990554 -3.01948220 0.16074241
H 1.02204739 1.30170903 -0.97753028
H 1.43268237 0.50165471 1.23751549
H -0.32902004 0.08728773 1.36599701
