11

N -0.4228632 0.8727721 -0.38941827
C -1.3068846 0.1283308 -1.1264724
O 1.4096766 -0.2622983 0.5226748
C 0.1414123 0.3747679 0.821342
C 1.3937052 -1.5504762 0.69931114
O -1.7411473 -0.94946843 -0.78968877
H -0.5175306 -0.37681326 1.2537923
H -0.11977306 1.7601141 -0.76305
H -1.5991015 0.6342306 -2.0646532
H 2.4108837 -1.8259655 0.32471293
H 0.35162273 1.1948063 1.5114497
