11

N -0.41296613 -0.5526992 -1.464124
C 0.1961618 -1.2939348 -0.6423925
O 0.76943237 -0.81831425 0.4763419
C 0.6972613 0.593687 0.6315559
C -0.7308887 1.0818527 0.79943436
O -1.0283298 2.244372 0.7074082
H -0.7872032 -1.0973436 -2.234341
H 0.3459922 -2.3763947 -0.6942061
H 1.1614428 1.1148238 -0.20978633
H 1.2532905 0.8075602 1.5499084
H -1.4641926 0.296391 1.0802009
