12

N -0.45323595 -0.4508532 1.9166615
C -0.14035304 -0.1342246 0.5988849
C -0.92751163 0.72309494 -0.17435151
N -0.5969797 1.0827793 -1.4120141
C 0.53767025 0.57809746 -1.8930334
N 1.3661807 -0.24821751 -1.2584653
C 1.0208361 -0.5976744 -0.022763409
H -1.4304093 -0.38465667 2.1600654
H -0.03455637 -1.300487 2.2647393
H -1.8547462 1.1346091 0.22264129
H 0.8160092 0.8710822 -2.9021895
H 1.6970961 -1.2735497 0.49982473
