12

N 0.51637447 -0.7913325 -0.266334
C 1.1763996 0.1644832 0.22620353
N 0.3791368 1.1289911 0.9177806
C -0.8833444 -0.48799008 0.1307693
O 2.4819682 0.4215534 0.19863945
C -0.91700846 0.84841454 0.88217366
N -1.8513904 -0.51313376 -0.94024646
H -1.18035 -1.248828 0.8681253
H -1.6206658 0.2052756 -1.616065
H 0.78412485 1.955696 1.3345535
H 2.9055107 -0.27804816 -0.31589466
H -1.790756 -1.4050813 -1.4197052
