12

N -1.8565652 1.1533854 -0.140195
C -0.6858876 0.436181 0.13980463
N 0.5599632 -1.2532195 0.58792424
C -0.6161151 -0.6935983 1.0447013
O 2.192417 -0.98018605 -1.0539536
C 1.0575682 -0.56119645 -0.49007967
N 0.35705766 0.4612708 -0.82832694
H 1.0369695 -2.0249846 1.026274
H -1.6789476 2.130698 -0.32912043
H -2.5454192 1.023497 0.5892381
H 2.3724208 -0.38668266 -1.7978135
H -0.19346158 0.6948351 1.2515469
