10

O 0.74892926 -1.2983043 1.1223794
C -0.7514622 0.7407062 0.53029656
C -0.24222639 1.2655542 -0.58791834
C 0.0894718 -0.48499107 0.25316533
N -0.2338192 -1.0029905 -1.0437812
N 0.7107185 0.1862831 -0.88090795
H 1.1913589 -0.75084627 1.782565
H -0.41005644 2.1263924 -1.2211304
H -1.5116532 1.0024333 1.2494178
H 0.40873903 -1.7842371 -1.2040861
