10

O 0.34353120 -0.53060831 1.76257357
C -0.79238305 0.86849944 -0.11132524
C -0.01547179 -0.29005579 0.47216782
C 0.01433329 0.79257623 -1.17369783
N 0.91566425 -0.24150666 -0.64734428
N -0.05798542 -1.39909461 -0.43510076
H 0.65763063 0.29340407 2.15454864
H 0.53626692 -2.12421536 -0.02280351
H 0.07752172 1.21562152 -2.16728061
H -1.67910766 1.41537913 0.16826172
