13

C 1.7907102 -0.08028756 0.114668615
N 0.47278798 0.5626095 -0.062978305
C -0.5679963 -0.4402387 -0.79511404
O -0.12435205 -0.9282333 -1.825508
C -1.6891837 -0.49656492 -0.029168237
O -1.7807233 0.18720932 1.1951478
H 1.6852943 -0.8676568 0.86233383
H -2.459683 0.8692668 1.1035038
H 2.0616264 -0.5267877 -0.84291315
H 0.026252912 0.8297557 0.82209355
H 0.5644268 1.3818806 -0.6653917
H 2.5312185 0.6573486 0.42878556
H -2.510379 -1.1483012 -0.30545986
