13

C 1.78542641 -0.11509793 -0.15888062
N 0.46537180 0.54762291 -0.16601934
C -0.69095585 -0.46792546 -0.67250433
O -0.41990960 -1.01888215 -1.73064010
C -1.68022604 -0.45869267 0.25924996
O -1.57051267 0.28977449 1.44357945
H -2.54374044 -1.10499313 0.14926104
H 0.47417679 1.33213032 -0.81945281
H 1.89777459 -0.61689268 -1.12080615
H 1.78604270 -0.85988219 0.63821544
H 0.16568930 0.87059236 0.76133926
H 2.57636468 0.62077502 -0.00384274
H -2.24550181 0.98147119 1.42050048
