11

C -1.3047543 0.10424377 -0.783754
O 0.07069897 -0.015742742 -1.0851164
C 0.8172283 -0.5315014 -0.017496368
C 1.0216064 0.49176782 1.0859159
O 1.2771513 0.20500839 2.2280364
H -1.7474315 -0.87241447 -0.53800213
H -1.4816357 0.7916513 0.05715697
H -1.7929873 0.5058423 -1.673405
H 1.8079174 -0.77581805 -0.4196786
H 0.38350588 -1.450245 0.40474516
H 0.94870025 1.547208 0.74159807
