11

C -0.84221649 0.10947458 -0.77883941
O 0.30042662 0.86499824 -1.20582677
C -0.00026196 -0.63422920 0.27191178
C 1.07677049 0.40269264 -0.09178961
O -0.45915461 -0.73298159 1.58816027
H -0.70493708 0.14892139 1.89773406
H -1.62140940 0.75043876 -0.33628129
H -1.27983965 -0.47586040 -1.59454959
H 2.06343374 0.03510135 -0.39638875
H 0.26299758 -1.64999651 -0.03049484
H 1.20419048 1.18144067 0.67636416
