9

O -0.91017465 1.54983183 -0.14760741
C -0.30345943 0.35588236 -0.01450828
N 0.97251073 0.06892861 -0.34240946
N 1.25423885 -1.23341152 -0.10038849
C -0.81039424 -0.83408671 0.44330326
N 0.17703078 -1.76633536 0.36633466
H 1.68815744 0.65558029 -0.74136732
H -0.26856730 2.25978495 -0.27640287
H -1.79934236 -1.05617469 0.81304606
