9

O 0.07955859 0.19882233 1.7906213
C -0.0066676475 -0.028926495 0.46697876
N 0.16644453 0.8821253 -0.5117849
N -0.30018106 -0.9182205 -1.5337027
C -0.30681944 -1.1893175 -0.20085528
N -0.012557231 0.32279927 -1.7320912
H 0.37391675 1.8665167 -0.4534186
H 0.52293926 1.0360707 1.9769287
H -0.51663375 -2.1698697 0.19732375
