12

C 0.5559257 -0.6480782 -1.850791
C -0.080328606 -0.7420368 -0.47998494
O -0.6062583 -1.7450521 -0.04997033
N 0.010433294 0.42119217 0.2697818
C -0.4739571 0.5384576 1.5633279
N -0.34506965 1.6424913 2.1765573
H 0.13361943 -1.4262352 -2.485238
H 0.39914173 0.33334455 -2.3101199
H 1.635093 -0.81725234 -1.7594441
H 0.45035347 1.2461253 -0.116314694
H -0.93613136 -0.3779324 1.9338018
H -0.74282175 1.5749761 3.108394
