12

C -0.24919902 -0.1873036 1.1901392
C -0.77373517 0.3176667 -0.16192143
O -0.5340763 0.36771426 2.2283978
N -0.7226648 -0.49086553 -1.2690357
C 0.31937543 0.9069184 -1.0840113
N 0.5630422 -1.2726833 1.07108
H 1.3075283 0.83847094 -0.62368035
H 0.5252798 -1.785656 0.20202915
H 0.35911474 0.18659 -1.9794676
H 0.8170512 -1.7519499 1.9196982
H 0.0076894746 1.8700866 -1.4839015
H -1.6194061 1.0010115 -0.009326262
