12

C 0.50082258 0.29147547 -1.55595564
C -0.28156905 -0.31929810 -0.45306460
O 1.21824094 0.30723733 1.27700109
N 0.72966305 -1.08806821 -1.16862935
C 0.06017902 0.13860543 0.93494266
N -1.00627363 0.35143494 1.75165740
H -1.30908781 -0.62842068 -0.63509015
H 0.02594695 0.43040845 -2.52387403
H 1.55672655 -1.13360529 -0.57600206
H 1.24695950 1.03192732 -1.27773989
H -1.92336501 0.00975634 1.51850658
H -0.81824323 0.60854698 2.70824782
