10

O 1.53993130 0.74375631 -0.45336791
C 0.43806697 0.02405919 -0.10536164
N -0.34539296 -0.61064622 -1.16983988
C -1.01809511 0.24379841 -0.17185058
C 0.05646655 -0.75533108 1.14799360
N -1.22299460 -0.59964605 1.03764115
H -0.20001088 -0.04609360 -2.01039910
H 0.57416189 -1.38558149 1.86597755
H -1.64106325 1.09129108 -0.43016959
H 1.81893024 1.29439329 0.28937622
