10

O 1.4733859 0.979398 -0.0042252922
C -0.27569878 -0.596259 1.2083328
N -1.4258003 -0.7109945 0.6273521
C -0.90043813 0.01609678 -0.56074953
C 0.4369951 0.098651774 0.05371864
N 0.21514831 -0.79363114 -1.0883801
H 0.5860765 -0.3087802 -1.909189
H 1.3680732 1.6537875 0.6790158
H -1.4931756 0.6888338 -1.1683259
H 0.015433914 -1.027103 2.1624503
