9

N -0.8364475 0.7257439 -0.7077763
C 0.5534943 0.30786133 -0.482811
N 0.8344403 -0.09652249 0.8837997
C 0.024741575 -0.9462098 0.061032906
O -1.3146759 -0.4792107 -0.050281096
H 1.3475968 0.59688616 -1.1566597
H 0.19767065 -2.009386 -0.039438415
H -1.1061116 1.5068191 -0.106955804
H 0.29929164 0.39401862 1.5990897
