9

N 0.049321655 -0.44826952 1.1537832
C -0.96012306 -0.49103627 0.15947637
N 0.36724615 0.8246066 -1.0176896
C 0.6236831 -0.25436088 -0.1771757
O -1.3570704 0.6738055 -0.2418132
H -0.016523309 0.43840882 1.6534841
H -1.4695206 -1.4093425 -0.13294484
H 1.1993704 1.4493462 -1.0620158
H 1.5636162 -0.7831578 -0.33510473
