11

C -1.48916233 0.03611468 0.90269791
N -1.08865053 -0.29154051 -0.32206310
C 1.06436223 -0.30680484 -1.43741591
C -0.37940568 0.48811074 1.62466663
N 0.68851541 0.43236610 0.83613700
N 0.20428271 -0.03079398 -0.30482761
H -0.30490917 0.84406442 2.64311498
H -2.52387663 -0.06102591 1.19920615
H 1.42914868 -1.33694588 -1.39409392
H 0.49286711 -0.15703712 -2.35256681
H 1.90682823 0.38349226 -1.39485544
