11

O 0.46307585 -1.091248 -2.333812
C 0.80947936 -0.14629616 -1.659545
C 0.26825467 0.1074942 -0.33590135
C 0.47129455 1.0729868 0.6234545
N -0.31399882 0.8373274 1.7128932
C -0.98725766 -0.25732672 1.423221
N -0.67543316 -0.73820394 0.20307696
H 1.563383 0.5822235 -2.0143301
H 1.1419837 1.9211774 0.5825801
H -1.711247 -0.7344262 2.0703523
H -1.0295346 -1.5537086 -0.27198988
