11

N -0.03729225 1.48357891 0.82508609
C -0.73942005 -1.00366424 0.61677998
C 0.01637122 -0.68790996 -0.40070847
N 0.46169239 -0.83610798 -1.67419817
N -0.46068130 2.08298315 -0.13420697
C 0.31061003 0.01530930 0.84687095
H 1.19282556 -0.14844662 1.47037882
H -1.54421696 -1.55514247 1.06479150
H -0.18034541 -1.30113123 -2.30142502
H 0.83287515 0.01868484 -2.06472289
H 0.14758160 1.93184587 1.75135387
