10

O 1.7794926 0.9117372 0.58757025
C -1.2628816 -0.56832755 -0.44162196
C 0.5812833 0.57054967 0.11404643
N -0.21195617 1.3723797 -0.5002218
C 0.038051747 -0.8144971 0.25790104
N -1.3781394 0.64037734 -0.8496328
H 1.9108268 1.8494536 0.37207636
H 0.6689601 -1.5595131 -0.23892325
H -2.047686 -1.2953701 -0.6080619
H -0.07795121 -1.1067894 1.3068677
