10

O 0.21522753 2.2125535 0.390573
C 0.1177787 0.88431895 0.16249958
C -1.0035985 0.194568 -0.21376973
N -0.5700804 -1.119298 -0.31082788
C 0.744473 -1.14082 0.002899337
N 1.1936568 0.059463535 0.29545414
H 1.1310081 2.3764758 0.64938784
H -2.01986 0.4911216 -0.41187838
H -1.13763 -1.9094228 -0.56869787
H 1.3290248 -2.0489604 0.0043600905
