9

O -1.08289316 -0.33339223 -1.29117309
C 0.07701511 0.59264889 0.59231605
N 1.01223290 -0.47877074 0.52282670
C -1.00920688 0.53540113 -0.46428969
C 1.14607141 -1.44056273 -0.20745870
O 1.41931720 -2.40484196 -0.80476936
H -1.74408345 1.36211769 -0.41883813
H -0.41257619 0.61001818 1.57551023
H 0.59412307 1.55738165 0.49587589
