9

O 2.2349927 1.1493435 1.4591768
C -0.108610764 -0.5158027 -0.655861
N 1.2033671 -0.16853335 -0.22514161
C 1.6457351 0.527309 0.66726375
C -1.2167065 0.12175996 0.1597424
O -1.0155168 0.8566674 1.0889364
H -2.2417252 -0.1388689 -0.16733396
H -0.25597385 -0.22635764 -1.7052312
H -0.24556181 -1.6055173 -0.6215516
