10

O -1.9309916 1.1228269 -0.5947464
C -0.20526363 -0.09165638 0.5474208
C -0.6651988 0.56699836 -0.7373479
O -0.91538334 -0.09226241 1.5293545
C 1.1125977 -0.70891094 0.53177
C 2.2045517 -1.2095553 0.48714918
H -2.2082534 0.9373357 0.31740555
H 0.08051574 1.3291832 -1.0111734
H 3.173032 -1.6586312 0.4617617
H -0.64560616 -0.19532824 -1.5315939
