10

O -0.95152928 1.85668868 0.99523437
C -0.29669802 1.10402166 0.02765991
C -0.13938025 -0.33811828 0.46524481
O -0.56366672 -0.70729066 1.53863053
C 0.53841378 -1.23336701 -0.46056921
C 1.10192114 -1.94748626 -1.24637610
H -1.15179745 1.24718923 1.72441566
H 0.70724927 1.50409255 -0.18217204
H -0.84525077 1.10765994 -0.92702803
H 1.60073840 -2.59338971 -1.93503993
