10

O 2.3644073 -0.3981262 0.27324736
C 1.1752454 -0.19582875 0.13526525
N 0.3332931 0.57293445 0.920728
C -0.97388303 0.552166 0.43474603
C -0.9782902 -0.22393546 -0.66047025
N 0.3275414 -0.6797039 -0.8475492
H 0.66061985 1.0648185 1.7344368
H -1.7749074 1.091102 0.91444695
H -1.7829802 -0.49609563 -1.3237802
H 0.64895386 -1.2873311 -1.5810705
