10

O -0.45149776 -1.66794568 -0.95356899
C 0.21610307 -0.57709914 -0.48908369
C -0.55505732 0.34131950 0.40052464
C 0.06164577 1.55448747 0.88539472
N 0.04458442 0.66467990 1.76785458
N 1.41387883 -0.31704615 -0.80096844
H -1.30510365 -1.75639102 -0.50741628
H 1.79978972 -1.05874365 -1.38592231
H 0.41810734 2.56048817 0.72043175
H -1.64245041 0.25625041 0.36275424
