10

O -1.029624 -1.5567882 -0.6414606
C 0.9168869 1.2512063 0.89328414
C -0.47355077 -0.3189994 -0.5412355
C 0.3437613 -0.057830222 0.68080205
N 1.7746658 0.4372477 0.47798812
N -0.6469963 0.58713394 -1.4063398
H -0.68164104 -2.1398122 0.047385316
H 0.81163967 2.2944906 1.1517332
H -1.2003886 0.23398416 -2.1875284
H 0.18524697 -0.7306325 1.5253714
