10

O -0.79335725 -1.7350023 -0.74607146
C -0.29945663 -0.5889572 -0.23535752
C 0.8658013 0.12381636 -0.4193893
C 0.7100894 1.2365237 0.44539905
N -0.4363166 1.2148225 1.1011131
N -1.0394996 0.08513116 0.6677819
H -0.1582373 -2.1004684 -1.3723006
H 1.6943154 -0.11491027 -1.0703673
H 1.4030529 2.051109 0.60585296
H -1.9463916 -0.17206475 1.0233394
