10

O -0.8731209 -0.7769411 -1.5957515
C -0.018709414 -0.7971305 0.7510404
C -0.27017662 -0.29365337 -0.5039921
C 0.7871706 0.15754901 1.4384383
N 0.23573296 0.9538567 -0.5791525
N 0.94045466 1.2438244 0.5626518
H -0.34099886 -1.7570133 1.132224
H 0.3913511 1.4159766 1.6113273
H 0.3040165 1.537148 -1.3957999
H -1.15572 -1.6836165 -1.4209859
