10

O -0.79320717 -1.7332665 -0.7446972
C -0.298422 -0.58622426 -0.23592015
C 0.8627328 0.1255318 -0.42300755
C 0.7105003 1.2351025 0.44377455
N -0.43274772 1.2122387 1.1019943
N -1.0387865 0.08453003 0.6696784
H -0.15501249 -2.1024308 -1.3654538
H 1.6876835 -0.11497933 -1.0782623
H 1.4023525 2.0504308 0.6070459
H -1.9450933 -0.17093317 1.0248481
