10

O 2.08444956 0.57823646 -0.30359487
C -1.16021419 0.27860162 0.70643586
C 0.79243717 0.37197771 -0.03786226
C -0.02772955 1.05052642 0.86327409
N 0.20061470 -0.63976261 -0.73824232
N -1.02914625 -0.82400182 -0.13161867
H 0.71809746 -1.45977826 -1.02464931
H -1.77482188 -1.06197578 -0.77627284
H 2.33756719 1.30497963 0.28492952
H -2.14125429 0.40119640 1.15760106
