11

N 1.3683581 -0.66621816 2.5932584
C 0.6597961 -0.6752069 1.6814184
C -0.24249497 -0.6540401 0.5157654
C -0.5319375 0.74137175 -0.07493839
C 0.24191086 0.22066607 -1.2926027
O 0.4041734 -1.0764147 -0.6854912
H -1.1202021 -1.2658315 0.7495975
H -1.5933001 0.9321124 -0.24153931
H -0.08132467 1.5789411 0.45930097
H -0.31481272 0.16149464 -2.2312474
H 1.2098333 0.7031256 -1.4735216
