12

N -0.2717879 -0.013067964 -2.0500202
C -0.15808995 -0.040872816 -0.65340024
C -1.031897 -0.31123343 0.33580694
N -0.355855 -0.09697511 1.5496985
C 0.9350885 0.33333486 1.3311914
O 1.7751952 0.6589764 2.1485994
N 1.0535762 0.31065637 -0.05655123
H 0.28878573 -0.729635 -2.4988973
H -1.23424 -0.12488503 -2.3387604
H -2.049988 -0.6655191 0.29628423
H -0.76515114 -0.08904725 2.4668193
H 1.8143631 0.76826805 -0.53077
