12

N 0.27674618 -0.26506504 0.985108
C -0.14170536 0.26450393 -1.1811053
C -0.55455625 0.7376996 0.92559284
N -0.86034507 1.1168585 -0.32600722
C 0.5413661 -0.5646778 -0.3398423
O -1.1030507 1.3869612 1.9652921
N 1.4555396 -1.5786641 -0.6347107
H 1.2356205 -2.0921602 -1.475973
H -0.1814351 0.3595789 -2.2547507
H -1.4837226 1.8647374 -0.5797216
H 1.5628662 -2.2020264 0.15391563
H -0.74732363 0.9722536 2.7622023
