12

N -0.39410275 -0.48330483 -2.0313613
C -1.0776879 -0.33988565 0.3717106
C 0.88389766 0.35890156 1.1256313
N -0.34758943 0.026365736 1.5388757
C -0.21887742 -0.20151472 -0.68088
O 1.9961573 0.7576088 1.6311185
N 0.99953026 0.24170479 -0.19070187
H -0.67010033 0.02021156 2.4905097
H -1.3653237 -0.492773 -2.3107476
H -2.105935 -0.66339344 0.4215833
H 2.1570015 0.64456046 0.26165387
H 0.14303012 0.13151872 -2.6273928
