11

C 0.5256867 -1.4360565 -0.051566515
N -0.16776139 -1.1076075 0.95832855
C 0.27069557 0.72020245 -0.819078
O 0.66582984 -0.6084433 -1.1101847
C -0.7304461 0.1959795 0.72914875
O 1.18397 1.5481496 -0.42166212
H 1.0322376 -2.389923 -0.16496012
H -1.7418026 0.17295465 0.3155182
H -0.7672878 0.77213824 1.6688678
H 0.22981025 1.1084942 0.43440938
H -0.50093234 1.0241117 -1.5388213
