11

C -0.3958735 -0.33145827 0.7207575
N 0.4110936 0.3519479 -1.4366878
C 0.4071107 -0.79167396 -0.5193206
O 0.34668994 -0.10837241 1.867216
C -0.3947389 1.1833196 -0.92462623
O -0.9987921 0.891794 0.2551745
H -0.6745771 2.1412323 -1.3519585
H 1.4266478 -1.0803432 -0.2491613
H -0.06138271 -1.6477561 -1.0161065
H 1.1391171 0.39282346 1.636158
H -1.2052947 -1.0015134 1.0185548
