11

C -0.7720779 0.8794116 1.5465132
N 0.5830606 0.515728 1.1783895
C 0.834934 -0.055520903 0.095894985
O -0.14333355 -0.38905326 -0.84310865
C 0.25093535 -1.0261045 -1.9674054
O 1.3763278 -1.3358259 -2.2376752
H -0.7868525 1.9537741 1.7526212
H -1.0158457 0.3660611 2.4805272
H -1.5346144 0.64536756 0.7952391
H 1.839231 -0.33819416 -0.20595062
H -0.63176453 -1.2156435 -2.5950453
