12

N -0.26812917 0.28029564 -0.091117226
C -0.30985492 -0.8903221 0.71454567
O -1.2177197 -1.0787352 1.491439
N 0.7399346 -1.7167832 0.4805016
C -1.0797205 1.3555913 0.016254582
C 0.63293296 0.6954083 -1.038789
H -1.5752426 1.7198079 -0.87327814
H 0.76878685 0.12216281 -1.9536754
H 1.2066121 1.5906976 -0.8485881
H 1.5636472 -1.3526903 0.029383313
H -1.2928064 1.7897046 0.9880201
H 0.83155966 -2.5151374 1.0853041
