12

N -0.2919865 -0.83416486 1.768767
C 0.09930897 0.29396057 1.0848708
O 0.8516866 1.1322905 1.5315101
N -0.49428543 0.37481064 -0.18584585
C 0.26944497 0.9362659 -1.273134
C -0.068131395 -0.5140198 -1.2555454
H -1.1430668 -1.2881088 1.4776058
H -0.105639905 -0.8162001 2.7587454
H -0.2790472 1.6103141 -1.9270903
H 1.2957135 1.216848 -1.0559741
H -0.8675676 -0.8980468 -1.8880243
H 0.73357075 -1.2139493 -1.0358856
