11

N -0.9583774 -2.6409166 0.6422509
C 0.40308398 -0.36098343 0.8255454
C -0.35686174 0.81920713 0.05379097
C 0.04321415 0.57923055 -1.3051472
C -0.38218287 -1.6389666 0.72156125
O 1.5622975 -0.3744094 0.20315132
H -0.29495305 1.2149987 -2.1230073
H 0.3158796 1.6208264 0.41680294
H 0.39541954 -0.08543807 1.8972435
H 0.6669222 -0.2846668 -1.5193874
H -1.3944418 1.1511183 0.18719551
