12

C -1.121988 -1.0132855 -1.7014432
N -0.99696267 -0.5850395 -0.322895
C 0.056755293 0.023395013 0.012789613
N 0.24786827 0.46905398 1.3141024
C 1.3503861 1.147613 1.7453475
O 1.5024341 1.5396236 2.8805737
H -1.9994357 -0.5326878 -2.1470776
H -0.24616717 -0.78986496 -2.3276374
H -1.3000467 -2.09263 -1.7257849
H 0.8936869 0.24785262 -0.6643875
H -0.48823565 0.28026992 1.9856496
H 2.1017046 1.3056996 0.9507634
