12

C -0.06875887 -0.43756303 0.27161962
N -1.4457556 -0.06300651 2.4840157
C 0.9846357 0.6637142 0.07779832
N -0.9166082 -0.4616483 -0.9126843
C -0.82143056 -0.23999062 1.5279535
O 1.665503 0.43775386 -1.1238996
H -1.4656553 -1.3127671 -0.9611516
H 0.9822056 0.20016797 -1.7689177
H 1.7126251 0.64598614 0.89159113
H -1.5631983 0.32163233 -0.902814
H 0.48132348 1.644337 0.09097598
H 0.4551139 -1.398616 0.3255131
