10

N 0.52107809 -0.82072730 -0.07817507
C -0.94558741 -0.68819112 0.07244776
C -1.25634852 0.77669616 0.15244156
C 1.02154145 0.40329796 -0.08709659
C 0.00724432 1.36778321 0.04524299
H -1.27266344 -1.21060251 0.97835816
H -1.44853200 -1.14968147 -0.78446621
H 1.06530821 -1.66406050 -0.16586154
H 2.09325198 0.55099828 -0.18857641
H 0.21470715 2.43448703 0.05568517
