10

N -0.34380543 0.73037106 0.63405037
C -0.114516094 0.8621216 -0.7047287
C 0.12366989 -1.4025714 -0.22414136
C 0.210812 -0.36027762 -1.2286568
C -0.14300106 -0.61698276 0.9565204
H 0.99785984 -1.011095 0.8145585
H -0.18220729 1.8367856 -1.1747798
H 0.4543287 -0.53499395 -2.270546
H -0.53646785 1.4846156 1.2731377
H -0.46667266 -0.9879732 1.9245855
