10

O -0.8119116 0.008525879 -1.3761207
C -1.0112648 -0.57941383 -0.05835378
C 0.18216152 0.20620695 0.4820494
O 1.1965319 -0.5901303 1.0132029
C 0.32279605 0.6454426 -0.9810699
O 1.0796679 1.2913022 -1.6353846
H -1.994838 -0.32994395 0.33809415
H -0.09449034 1.0457631 1.135252
H 1.9751141 -0.03934056 1.1634604
H -0.84376657 -1.6584121 -0.08112989
