10

O 1.35989621 -0.01126297 0.97830354
C 0.37054325 -0.40583750 0.07790586
C -1.09011313 -0.20641526 0.50233234
O -1.36492899 0.64886412 -0.51858045
C 0.02045813 0.65034363 -0.96871910
O -1.81508479 -0.59361400 1.36408090
H 1.39258210 -0.65046262 1.70113985
H 0.54101829 -1.40847100 -0.33890195
H 0.49240858 1.61730581 -0.78147970
H 0.09321995 0.35955004 -2.01608113
