10

O -0.80025834 -0.95509964 0.4379254
C 0.99915266 -0.6871627 0.20151718
C -0.7946045 0.49441037 0.45066798
O 1.777455 -1.4801378 0.49727976
C 0.49104145 0.56001997 -0.40814614
O 0.23212823 -0.12135932 -1.5616002
H -0.7017565 0.8452317 1.4796014
H 1.1027921 1.4668235 -0.41542286
H -1.6831377 0.893018 -0.043678243
H -0.6228127 -1.0157439 -0.63814443
