12

C -0.7662071 1.1769603 0.005192415
N -0.18575199 -0.15578271 -0.1415927
C 1.0579085 -0.41118288 0.40180123
N 1.7073814 0.48669523 1.0267673
C -0.85701334 -1.1473477 -0.8188641
O -1.9449543 -1.0257953 -1.3306134
H -1.739183 1.1603665 -0.48433766
H -0.11118852 1.9190452 -0.45775008
H -0.868631 1.4161912 1.066348
H 1.4014698 -1.4427135 0.22858098
H 2.5927384 0.11805545 1.3548955
H -0.28656894 -2.094492 -0.85042757
