12

C -0.520443 0.40230155 -0.3077224
N 1.2315619 0.90680784 0.40101138
C 0.6779658 0.8329775 -1.0267218
N 1.1183517 0.98445004 -2.1446872
C -0.8240637 -1.0262693 -0.07807839
O -1.5546651 -1.2512982 1.1000265
H 0.0814586 -1.6437715 -0.15070423
H -0.958682 -1.1463542 1.8482162
H 2.02459 0.2773668 0.57103825
H -1.4586642 -1.3096167 -0.92982525
H 1.4532269 1.8490067 0.70785123
H -1.270637 1.1243995 0.009595868
