10

O 0.9512217 2.0914257 -1.1639789
C 0.6725319 1.1129272 -0.5492524
O 1.1271116 0.7575107 0.7083987
C 0.49912685 -0.5361212 0.56854844
C -0.9660199 -0.36918557 0.50686276
C -0.11905689 -0.15026389 -0.74231607
H 1.078725 -1.4032695 0.8484725
H -1.5553776 -1.2806491 0.47641894
H -1.4311637 0.47289413 1.0132873
H -0.25709876 -0.6952687 -1.6664416
