10

O 2.70525422 1.25973408 0.13756517
C -1.31077245 -0.13638401 -0.35135218
O 0.60351760 0.74851936 0.95062298
C 1.71079858 0.60166067 0.14397787
C 0.03651067 -0.42144083 0.28627394
C 1.19813796 -0.60168901 -0.63961620
H -1.22597313 0.68678857 -1.06455482
H -0.01437840 -1.24910364 0.99924505
H -2.03727824 0.13818443 0.41629730
H -1.66581662 -1.02626984 -0.87845943
