9

O 0.82420061 1.66414643 1.15940962
C 0.14094302 -0.87097108 -0.81284193
N -0.14179714 0.52837086 -0.82431338
N -1.32701081 0.94183860 0.23615289
C -0.11160953 1.15368821 0.40134911
N -0.57613931 -1.72969940 -0.22996431
H 1.01425858 -1.07148452 -1.44285124
H 0.41332441 2.05371938 1.94656965
H -0.23616991 -2.66960850 -0.43351050
