9

O -1.7677138 1.5738553 -0.057805005
C -1.0016853 0.4799064 -0.060456164
N 0.10402563 0.48029512 0.72129375
N 1.1130441 -1.3875991 -0.23158687
C 1.1749148 -0.27479205 0.40267238
N -1.1909252 -0.64482635 -0.5891165
H -2.579882 1.3831513 -0.5488923
H 2.0414453 -1.757353 -0.43289584
H 2.1067765 0.14736237 0.7967866
