10

O 0.73489312 -1.87117397 -1.54343369
C 0.44580935 0.79175510 0.87284728
C 0.75011476 -0.53290007 -1.35874707
C 0.63117966 0.09829693 -0.21857588
N -0.83747353 1.24727035 1.31873761
N -1.77181453 0.47067659 1.06123509
H 0.52864812 -2.30465565 -0.70512592
H 0.88583591 0.00265189 -2.29580492
H 1.26344426 1.15751422 1.48795573
H -2.63063724 0.94056438 1.38091201
