10

O 1.06929386 -1.18663497 -0.51183729
C 0.35012642 -0.31316066 0.30899967
C -1.14018921 -0.24343906 -0.01135413
O -1.02704767 1.18934323 -0.28459533
C 0.31754292 1.16747227 -0.10575467
O 1.10024878 2.05249963 -0.26178834
H -1.41581885 -0.79335106 -0.91230777
H -1.83751388 -0.42846428 0.80597175
H 2.01197305 -1.00615286 -0.40586909
H 0.57138468 -0.43811209 1.37853526
