17

C -1.5307639 2.2375638 0.13831295
N -0.66321564 1.1790868 -0.34211907
C -0.11181984 0.31795108 0.5916834
O -0.228774 0.52056825 1.7932116
N 0.605386 -0.7406275 0.07885543
C 1.044469 -1.7847115 0.9814323
C 0.83368367 -0.93857175 -1.3365852
H -2.4652145 1.8610839 0.5754726
H -1.0091021 2.8057067 0.9125932
H -1.7651974 2.9084504 -0.69068444
H -0.9364507 0.77410007 -1.2252821
H 0.5269622 -2.7336016 0.7787211
H 0.8275579 -1.4718444 2.002821
H 2.1230288 -1.9535869 0.87899786
H 0.99903405 0.022687662 -1.8335096
H 1.7415824 -1.5358597 -1.4679366
H 0.008833478 -1.4683948 -1.8359846
