17

C -0.36570382 1.4545755 -2.2624078
N -0.12125012 1.0723774 -0.8823875
C 0.4999209 0.36228287 1.7318865
O -0.83966035 -1.043744 -1.3167584
N 0.03045537 -0.59114295 0.7459644
C -0.0032358165 -1.9858938 1.1306822
C -0.33084604 -0.24985673 -0.536647
H -1.3663216 1.1236216 -2.5496714
H -0.6644224 -2.1356025 1.9937836
H 1.5872208 0.5210207 1.686154
H -0.008347734 1.3231431 1.6011778
H -0.37894326 -2.5658686 0.2886781
H 0.34723753 1.0070239 -2.9667103
H -0.31849113 2.543221 -2.3403196
H 1.0004618 -2.345525 1.3962837
H 0.67655396 1.5182256 -0.45316595
H 0.255372 -0.007857894 2.733458
