11

N 1.22992484 -1.66748928 1.02630285
C -0.18799431 1.44644340 -0.10243723
C -0.80637333 -0.50847577 -0.18776854
C 0.52273467 0.19162237 -0.60882446
C 0.47579668 -0.86283549 0.41621360
O -1.34041805 0.70076831 0.33856767
H -0.47554027 2.12490517 -0.91333296
H 1.10261590 0.11049799 -1.52199896
H 0.27215967 2.00694648 0.72017630
H -1.48186625 -1.18202652 -0.70700358
H 0.68896060 -2.36035647 1.54010478
