11

N 0.7387453 1.7391328 2.3410475
C 0.2527344 1.3232363 1.3804759
C -0.34523872 0.7815794 0.14576042
C 0.5793032 -0.11905294 -0.7003836
C -0.40291992 -1.2320386 -0.31199247
O -1.240746 -0.3003732 0.40139478
H -0.83407986 1.6016655 -0.39085537
H 0.59229374 0.14258873 -1.7596674
H 1.5979421 -0.2256953 -0.32873645
H -0.9391534 -1.7110687 -1.1345934
H 0.0011192972 -1.9999738 0.35754958
