11

N -1.1280919 0.14868067 -1.9492245
C -0.8965811 -0.5205116 -0.25462008
C 1.4591671 0.30256048 0.3586194
C -1.7593069 0.7366836 -1.1230273
C 0.033154875 0.22498651 0.66628516
O 0.9685495 -0.5947565 1.3447162
H -0.42438576 1.0073938 1.2714133
H 1.8319011 -0.17110024 -0.5504861
H -0.3584502 -1.3370312 -0.7442355
H 2.042392 1.1407353 0.7302966
H -1.7683485 -0.9376407 0.25026262
