11

N 1.0237553 0.68877983 1.4543419
C 0.18783525 -0.18017398 -0.64238936
C -0.89450395 -1.1583341 -0.56743807
C 0.23612589 0.9980914 0.3066947
C 1.6830492 0.37596115 2.37166
O -0.87200165 -0.14919446 -1.5712353
H 0.66571826 1.8728592 -0.19185115
H -1.6725333 -1.0408798 0.18557929
H -0.77981603 1.2590222 0.62254435
H -0.72884953 -2.174417 -0.9195127
H 1.1512207 -0.4917146 -1.0483935
