11

N 1.04328838 1.58837871 0.16188020
C 0.09697015 0.86555542 -0.62242595
C -0.74322755 -1.18311691 0.71533800
C 0.14566512 -0.61107311 -0.29288259
C 1.83981701 2.12598504 0.83308661
O -0.99743820 -1.34129610 -0.67636396
H -1.44499912 -0.53676412 1.24060466
H -0.90869811 1.25381339 -0.42782130
H 0.31820755 1.02798244 -1.68213711
H 1.09867418 -1.10248502 -0.49362252
H -0.44825935 -2.08698017 1.24434401
