13

C 0.34899422 -0.36638985 1.57211908
C 0.09856528 0.10951648 0.17912343
N -0.06384788 1.37570481 -0.06170000
O -0.30575503 1.92366880 -1.18659510
C 0.00452628 -0.81466297 -1.00523798
O -1.12110297 -0.56071042 -1.80439183
H 0.44273803 0.46687908 2.27584149
H -0.00290539 2.01898072 0.73537127
H -0.47162917 -1.01030434 1.91151415
H 1.27051948 -0.95913219 1.62273673
H -1.07158642 0.38905502 -2.00820275
H -0.06993027 -1.84670298 -0.64915222
H 0.94141411 -0.72590216 -1.58142627
