13

C 1.4267728 -0.22596404 0.80053514
C 0.1989297 0.11699543 0.023091583
N -0.104689434 1.3586746 -0.20854414
O -2.0935493 -0.62846625 -0.22176446
C -0.7521019 -0.9168408 -0.51763433
O -1.123908 1.8016791 -0.83233345
H 0.5335768 2.0757444 0.15376458
H 2.0130606 0.66461945 1.0484825
H -2.2277222 0.28106198 -0.5392565
H -0.5834548 -0.9987428 -1.6050535
H -0.5173004 -1.8878447 -0.07101691
H 1.1600304 -0.7316634 1.7366731
H 2.0703557 -0.9092528 0.23305653
