13

C -0.54832417 0.02537597 1.7067848
C 0.025814459 0.16777246 0.32951015
N 1.1370655 0.7835741 0.2315328
O 1.5579863 0.87359583 -1.1068952
C -0.71593386 -0.41424435 -0.85779864
O 0.061035573 -1.3122677 -1.6112474
H 0.084177874 0.5297233 2.4394274
H -1.5558546 0.454473 1.7485617
H -0.63614666 -1.0337697 1.9702829
H 2.4131017 1.308508 -1.0239278
H -1.0976089 0.4162899 -1.4716128
H -1.5808339 -0.9794144 -0.4930877
H 0.85552096 -0.8196164 -1.8615302
