9

O 0.5133505 1.6562675 -1.3074719
C 0.14708023 0.6533851 -0.5103301
N -0.0051357937 -0.58477235 -0.9637956
N -0.056752134 0.8366012 0.808267
C -0.36590406 -1.222729 0.16155067
N -0.45589104 -0.33967325 1.272424
H -0.82440126 -2.206591 0.19930439
H 0.5505048 2.4549167 -0.7605571
H 0.49714884 -1.2474049 1.1006086
