9

O -1.3202963 -0.65974236 0.88518745
C -0.59774077 0.2953755 0.15418914
C 0.8621823 0.19345944 0.33871233
C 2.0449703 0.075653024 0.5085438
C -0.92813057 0.23326601 -1.2956451
N -1.2064906 0.15750717 -2.4128635
H -1.0072062 -1.5383455 0.6369096
H -0.9457279 1.264705 0.526456
H 3.09844 -0.02187834 0.65851045
