15

N 1.0435523 -0.40257606 -0.25373623
C -1.2478268 -0.785034 -0.37169293
O -1.020389 0.3463961 0.4659811
N 0.8391744 1.8640087 0.2639243
C 0.3887261 0.5595113 0.6212971
C 0.035475202 -0.8808363 -1.1939437
O 0.7060365 0.43012622 1.9699842
H -2.1470795 -0.60530686 -0.96865356
H 0.4131748 2.54959 0.8763736
H -0.012140796 -0.2062881 -2.055881
H 0.09905222 -0.20966288 2.352252
H 0.2628248 -1.8874953 -1.5569215
H -1.4054533 -1.6889559 0.23648193
H 1.421148 -1.150122 0.3174304
H 0.6237247 2.066645 -0.7028958
