10

O 0.95177189 -1.73367262 -1.29821205
C 0.51288449 -0.81445130 -0.67414397
C -0.86212859 -0.64381419 -0.05044075
O -0.90972750 0.71717332 0.31845504
C 0.42098681 1.14018220 0.45279737
O 1.21424632 0.30689111 -0.38675288
H -1.65372287 -0.85844148 -0.77353501
H -0.96468269 -1.32166846 0.80942971
H 0.78361289 1.03332333 1.48563794
H 0.50675898 2.17447876 0.11676469
