11

N 0.6338561 0.043819945 1.5890865
C 0.35416535 -0.89582497 0.6471476
O -0.91329104 1.1642139 -0.540265
C -0.6788473 -0.5741869 -0.3656674
C -0.2534698 0.27646327 -1.4836316
O 0.87233484 -2.00205 0.6018068
H 0.79561496 0.56157583 -1.5695515
H -0.7626003 0.19652417 -2.447295
H -1.66887 0.41843465 -0.21143712
H 1.3324763 -0.17366244 2.2838857
H 0.28863105 0.9846926 1.4959211
