11

N -1.38792267 -0.89611702 0.91704166
C 1.04839316 0.85732498 -1.12697674
O -1.63038510 -0.08076626 -1.18874353
C 0.47144564 0.22733464 -0.11165479
C -0.95000863 -0.25787586 -0.19643766
O 1.05355934 -0.06144820 1.09553229
H 1.96220330 0.26075154 1.09370102
H 2.07203553 1.21561978 -1.07979499
H 0.48083225 1.01640948 -2.03498438
H -2.33272823 -1.24736172 0.91958754
H -0.78742466 -1.03387149 1.71272921
