11

N -0.6979633 0.40688652 1.9829967
C 0.019505084 -0.26134768 1.01493
O 0.73419535 -1.2130541 1.248648
N -0.12357332 0.28463545 -0.2520188
C 0.52513534 -0.23286013 -1.3654704
N 0.40714633 0.34873077 -2.4865468
H -0.73106515 -0.0834118 2.8656962
H -1.5505693 0.87729615 1.7236626
H -0.61659384 1.1547376 -0.3958902
H 1.0963438 -1.1349046 -1.1394148
H 0.9374391 -0.14670837 -3.196592
