12

N -0.34966666 1.75250321 2.04293929
C -0.65595369 0.81329951 1.44464774
C -1.01082953 -0.42663412 0.71547647
C 0.28720912 1.22141104 -2.12329390
N 0.68944974 0.35524476 -1.32135357
C 0.97773157 -0.68199854 -0.65764717
N 0.13732052 -1.21663072 0.33372917
H -1.57539457 -0.16300064 -0.18399725
H 1.87754141 -1.24072539 -0.89562067
H 0.63302119 2.22328921 -1.82164262
H 0.64908976 -1.60299031 1.11492251
H -1.65951892 -1.03376796 1.35184004
