12

N 0.8488945 0.18577132 -1.2618963
C -0.5929241 0.9550267 1.3838726
C 0.692266 1.0989178 -2.0966303
C 0.8710531 -0.8750602 -0.5736872
N -0.15387315 1.8261019 2.0022013
C -1.1290342 -0.20361601 0.6320774
N -0.13492145 -1.2130125 0.3475906
H 0.22600672 -1.6781327 1.1690762
H 1.2059159 2.0178423 -1.7709297
H -1.9340899 -0.65751636 1.2153679
H 1.6573392 -1.6057647 -0.7358289
H -1.5566326 0.14944264 -0.3112139
