11

O -0.8549353 -2.1461973 0.5505712
C -0.97483575 0.69999415 -1.7150095
O -1.2112176 0.97387534 -0.34605414
C -0.09800285 0.16232125 -0.18486844
C 0.9821977 0.50563794 0.84346247
C -0.20124881 -1.1531566 0.57541317
O 0.8292466 -0.8248572 1.4136078
H -1.5097451 -0.26285824 -1.9019752
H 0.67277116 1.2778498 1.5487341
H 1.9947141 0.6640149 0.4726534
H 0.37105632 0.10337616 -1.2565352
