10

N 0.59947089 0.90293616 1.62551017
C -0.91361929 -1.04188765 -0.73690294
C 0.03631363 -0.27565358 -1.56001805
C 0.17425772 0.27985333 0.54852885
C -0.88076017 -0.74748037 0.58663725
O 0.32825389 -0.20617808 -2.70629136
O 0.73651003 0.59427003 -0.59609918
H -1.54541233 -1.76609193 -1.24221368
H 1.32277201 1.60469388 1.58950684
H 0.14221385 0.65553844 2.49134212
