10

O 0.68154335 0.6467556 -2.2229176
C 0.22119954 0.37668052 -1.1267309
C -0.95343435 0.5299343 -0.3878832
N -0.43553707 -0.1644356 0.82194144
C 0.87542963 -0.37727818 0.08195788
H 1.70233 0.121934794 0.5907996
H -1.9476017 0.94570076 -0.46021655
H -0.89883786 -1.0380001 1.082143
H 1.0848886 -1.441406 -0.04722931
H -0.32998013 0.4001138 1.6681356
