10

O 0.77284026 1.82479536 -1.37731508
C 0.26749245 0.96712510 -0.67339209
C -0.93734637 0.67883980 -0.02965115
N -0.46927418 -0.61037297 0.54730782
C 0.87193741 -0.37251256 -0.12803301
H -0.40031958 -0.66169722 1.56638285
H -1.92839275 1.07935701 0.12486625
H -0.94142113 -1.45649327 0.22077281
H 1.67585533 -0.29280688 0.60631070
H 1.08862850 -1.15623384 -0.85724926
