11

C -0.43605092 -1.3805692 -0.56845903
C -0.5147192 0.014420898 0.037094343
C 0.84005255 0.64583 0.22427998
O 1.8948995 0.14386737 -0.058076654
C 0.8100874 2.010618 0.8179864
N 0.77627236 3.0666845 1.2811395
H 0.04854865 -1.3573924 -1.5488547
H -1.4427475 -1.7894219 -0.6878176
H 0.1403501 -2.0550475 0.070137575
H -1.0082521 0.0052062916 1.0177536
H -1.1084406 0.695804 -0.5851836
