11

C -0.22468512 1.15772091 -0.61560203
C 0.14908758 -0.04746277 0.20931618
O -0.58589311 -0.26680250 1.38566192
C 2.71341430 -0.32625662 0.41874043
C -0.71160587 -1.22482373 0.33926661
N 1.54230537 -0.23443498 0.34632707
H 0.19579983 1.07304474 -1.62142108
H -1.67165197 -1.23648076 -0.17342367
H -1.31282403 1.23054740 -0.68471731
H 0.16271063 2.06762542 -0.14954720
H -0.25665741 -2.19267689 0.54539910
