10

O -2.25219402 0.97197352 -0.85833728
C -0.24052378 -0.24384898 0.35738924
C -1.14534870 1.12016224 -1.30482214
C 1.05635996 -0.73509694 0.80516052
O -0.03203896 0.57987420 -0.80566422
C 2.10363100 -1.16035517 1.20518001
H -0.90772049 -1.07181951 0.09769262
H -0.89424614 1.72464063 -2.18894997
H -0.72887834 0.34671250 1.13960168
H 3.04095966 -1.53224266 1.55274937
