10

O -0.0093942415 0.811698 -0.57221806
C 0.9766709 -0.70152056 0.92656904
C 1.9483216 -0.9768231 1.5728973
C -1.0531253 1.210902 -1.3014574
O -2.1107213 0.6427772 -1.373152
C -0.22729763 -0.41000727 0.1589683
H -0.45065138 -1.2169888 -0.5460302
H -0.797284 2.1426976 -1.8272243
H 2.8177855 -1.2115129 2.1444242
H -1.094304 -0.2912222 0.8172231
