10

O 1.2242225 -0.1550709 -0.91180277
C 0.25745782 0.61505413 -0.4555043
C -1.0873326 -0.1039105 -0.68986464
C 0.33786747 1.0974852 0.88804823
O -0.6710323 -1.1440016 0.25776798
C 0.48048413 -0.50250334 0.6005905
H 1.2460341 -1.0073665 1.1834356
H -1.957808 0.43289864 -0.31376204
H 1.3943567 1.3116912 1.1187834
H -1.2242498 -0.5442761 -1.677692
