9

O 0.12551169 -0.96828820 1.25418545
C 1.46867739 1.33506470 -1.10298330
C -0.87785009 -1.10807682 0.26608875
C -0.27377048 0.20156150 0.54828755
C 0.68874335 0.80426524 -0.35500716
H 2.16674304 1.79614087 -1.76637943
H -0.84462758 0.90729465 1.15239649
H -0.57505736 -1.64164957 -0.63287803
H -1.87836995 -1.32631233 0.63628964
