9

O 2.5044558 -0.30164444 -0.048045292
C 1.4267403 0.22035076 -0.1341194
C 0.21136561 -0.23531553 0.6639256
C -1.0249759 -0.09583977 -0.105165705
C -2.013288 0.037598144 -0.77770835
H 1.2532456 1.0977366 -0.7916969
H 0.16161554 0.3936855 1.5636888
H 0.37631786 -1.2643957 0.9978901
H -2.8954768 0.14782448 -1.3687689
