11

N 1.8483729 -0.1114188 -1.4363703
C 0.5981591 -0.13238965 -0.8691436
N -0.5490155 -0.24411723 -1.4417275
N -1.5008746 -0.07000994 -0.43285224
C -0.835775 0.091511525 0.65578866
N -1.2972234 0.19630654 1.9434832
O 0.51254946 0.07156248 0.4729282
H 2.544009 -0.6484955 -0.93706304
H 1.8043768 -0.35146004 -2.4176266
H -0.8225253 0.89279085 2.5011344
H -2.302053 0.3057198 1.961449
