11

N 1.09011052 -0.22091383 0.69441242
C 0.32570861 -0.31194571 -1.40195394
N 0.38867608 -0.54044550 -2.63373177
N -0.76096773 0.03199879 -0.58337737
C -0.26062981 0.12621276 0.59573553
N -0.91061905 0.52058046 1.72092502
O 1.48619866 -0.41038290 -0.64550782
H 1.68868420 0.49831884 1.08603378
H -0.53826647 -0.42252459 -3.03368527
H -0.59906037 0.12395454 2.59127283
H -1.90983418 0.60514717 1.60987677
