11

N -0.6509794 -1.2146581 -0.22787319
C -0.9704153 -0.1910246 0.524871
N -2.245623 -0.25401053 0.8440629
N 1.9459392 0.99850285 -0.7560443
C 0.8790761 0.21712182 -0.42524534
N 0.5132597 -0.91057664 -0.9337119
O 0.02158558 0.7338452 0.5341451
H -1.9298865 -1.4048058 -0.008254737
H -2.5398223 0.023977472 1.7759333
H 2.6064005 0.51529384 -1.3465445
H 2.3704658 1.4863347 0.018661713
