10

O -0.38120657 1.6399362 -1.2165581
C -0.16730328 0.6081427 -0.35454714
C 0.5158504 -0.5727735 -0.5368412
N 0.40820917 -1.2376863 0.6488379
N -0.2883128 -0.5695463 1.568159
C -0.64786166 0.5578906 0.9736814
H -0.03513846 1.4007503 -2.0829065
H 1.0494279 -0.9826025 -1.3812758
H 0.7834295 -2.140446 0.8813448
H -1.2370943 1.2963346 1.5001055
