10

O -0.89837851 1.71485573 -1.14623119
C -0.47182038 0.84405727 -0.42526401
C 0.51400013 -0.26257453 -0.79237599
N 0.75680911 -0.88646681 0.49784374
N -0.11179184 -0.44536700 1.43276701
C -0.77421312 0.57231002 0.98865956
H 1.42749297 0.15280680 -1.22696571
H 0.05309014 -0.94535505 -1.51551932
H 0.96936324 -1.86796034 0.57452535
H -1.46455185 1.12369371 1.61256043
