10

O 1.5125084 0.92376816 1.3679441
C 0.5869637 0.4294992 0.53729737
C 0.009789215 -0.8875355 0.4992183
N -0.9505141 -0.8662598 -0.437003
N -1.116099 0.33940583 -1.0296971
C -0.25482488 1.131666 -0.44735268
H -1.4841557 -1.643838 -0.7912572
H 1.5782349 0.18332222 -0.0047797845
H -0.16509014 2.169249 -0.7378489
H 0.28318754 -1.7792771 1.0434787
