11

N 1.3476439 0.567876 1.8380928
C 0.64086413 0.26623803 0.83440614
C -0.7667813 -0.17863482 0.8553133
C -1.1579595 -0.39683047 -0.39618215
C -0.0144391665 -0.10639948 -1.3248316
O 1.0560598 0.29942238 -0.4700493
H 2.2852263 0.84625405 1.5541651
H -1.3286389 -0.28590694 1.7725905
H -2.1306183 -0.7290966 -0.739264
H -0.23372461 0.70411646 -2.0285966
H 0.3023678 -0.9870387 -1.895644
