11

N 2.3804514 -0.2763461 -0.69644773
C -1.0537958 0.41876957 -0.5298702
C -0.7425979 -0.07109967 0.8923734
C 1.1639899 -0.0814753 -0.37323126
C 0.2053235 0.6236225 -1.2644362
O 0.61075133 -0.4997345 0.81597024
H -1.3573384 -0.91129297 1.2262745
H 2.8651698 -0.7737518 0.050412275
H -1.7711654 1.2400688 -0.6118091
H -0.8201076 0.7364059 1.6284492
H -1.4806806 -0.40516642 -1.1376852
