11

N 2.1459227 -0.06463947 1.5037354
C -1.5511987 -0.3159187 -0.26322898
C -1.7155644 -0.8569309 0.90681607
C -0.40401146 0.32644016 -1.0076015
C 1.0539298 -0.09209627 0.89008105
O 0.8666476 0.34036806 -0.37238586
H -0.664673 1.3682358 -1.2253503
H 0.16640383 -0.50897735 1.394707
H -0.2629709 -0.1952465 -1.9599136
H -2.5123153 -0.3544325 -0.801476
H 2.8778296 0.35319757 0.9346172
