11

N 2.16869447 0.71939859 1.00358628
C 1.06358503 0.40329256 0.45492226
C -1.06176454 -0.41499800 0.23080261
C -0.51585108 0.01105356 -1.14034707
C 0.75069726 0.73905350 -0.95922633
O 0.05525091 -0.27726033 1.09937858
H 2.18206365 0.39997639 1.97206702
H -1.86446938 0.24654119 0.57418491
H -1.41471115 -1.44877828 0.27605339
H -1.22862009 0.49221543 -1.81585365
H -0.13487494 -0.87049469 -1.69556782
