11

N 1.3478279 0.56725496 1.8373052
C 0.64078796 0.26622945 0.8338742
C -0.7660356 -0.17729655 0.8555292
C -1.1561395 -0.39577878 -0.3963358
C -0.01411478 -0.10664837 -1.3250452
O 1.0538328 0.2963477 -0.46915987
H 2.2863648 0.8437594 1.554772
H -1.3273796 -0.2850581 1.7740186
H -2.1302302 -0.72752243 -0.73988074
H -0.2337104 0.7056042 -2.0265849
H 0.29879665 -0.98689145 -1.8984926
