11

N -1.7248858 1.1511786 -1.2863449
C 1.2355738 -0.1952961 0.15481277
C -1.0151317 -0.81848323 1.0676605
C -0.85061324 0.5563438 -0.6149067
C 0.29941696 -0.90927315 1.0879965
O 0.46689695 0.56461555 -0.7723077
H 0.75037277 -1.5561529 1.8414214
H 1.8955222 0.49857122 0.68665636
H -1.5804939 -0.11352051 0.2970075
H 1.8522103 -0.8932952 -0.4209616
H -1.3288683 1.7153122 -2.0410342
