10

O 1.448151 0.511942 1.5337373
C -0.4665138 -0.018412014 0.21699694
C 0.27429205 -0.6608057 -2.0858045
C 0.26153168 0.64097637 1.3643241
N 0.47127354 -0.4709474 -0.80586565
H 1.4069632 -0.6335995 -0.43050292
H -1.1966451 0.67081964 -0.22396463
H -0.37111086 1.2348268 2.056692
H -1.0281049 -0.86771417 0.63638395
H -0.7998365 -0.40708598 -2.2619967
