12

O 0.40287712 1.1758524 -2.1693442
C 0.7552975 1.2891074 -0.8142778
C 0.21042883 0.17035782 0.020334141
N -0.749082 -0.61393756 -0.43028122
N -0.98034906 -1.419241 0.62666684
C -0.16415231 -1.0947372 1.6442232
N 0.6070038 -0.0870372 1.298373
H -0.4884106 0.8056122 -2.2086174
H 0.40585864 2.2396924 -0.37988955
H 1.8481606 1.287206 -0.74868304
H -1.6783757 -2.142268 0.5676474
H -0.16925685 -1.6106076 2.5938485
