9

N -0.11849235 -0.848279 0.45033705
C 0.359357 0.377035 0.85971224
C 0.2748781 1.1778991 -0.24499725
N -0.23773028 0.48227084 -1.3113668
C -0.4623639 -0.72699577 -0.8611114
H -0.2001473 -1.678559 1.0128034
H 0.70146984 0.548697 1.8691459
H 0.5526392 2.2190976 -0.34199968
H -0.86961025 -1.551166 -1.4325234
