11

N -0.41833773 -0.5564135 -1.4622203
C 0.19465214 -1.2954346 -0.6404277
O 0.77284956 -0.81646764 0.4719975
C 0.6977899 0.59461695 0.6318084
C -0.73161244 1.0813195 0.80031854
O -1.0257308 2.24516 0.7119842
H -0.7867135 -1.0992024 -2.2366242
H 0.34315687 -2.3762052 -0.691951
H 1.1594911 1.1182659 -0.20989935
H 1.2578157 0.8075014 1.5476848
H -1.4633608 0.29685956 1.0773292
