11

O 1.2878892 -0.9824667 0.4630892
C -0.5567403 0.20596898 0.041892607
C 1.4738044 -0.25245562 -0.7124263
O 0.1714139 0.16254917 -1.0961848
C -1.8211783 0.6100576 0.12809052
N 0.29515144 -0.19007769 1.1076894
H -2.3393817 0.9685589 -0.75357246
H 2.1014357 0.6306194 -0.5353055
H -2.3389616 0.5888359 1.0784966
H 1.8908038 -0.9088855 -1.4731644
H -0.16423643 -0.83270437 1.7513952
