11

O -1.8732492 -0.0874448 -0.09894971
C -0.6219055 0.49844322 0.084859416
C 0.2692496 0.073421836 1.2647222
O 1.3645412 -0.1835584 0.33782485
C 0.5411449 0.0003874624 -0.7433212
N 0.6998328 -0.26324543 -1.9596146
H -1.7456119 -0.9449787 -0.5236289
H -0.7468417 1.5829268 0.023954973
H 0.5458379 0.8338126 1.9972762
H -0.054327067 -0.84973806 1.753097
H 1.6213288 -0.66002655 -2.1362205
