11

O 0.8592542 0.57928854 0.55306005
C -0.18847807 -1.5351783 0.16941068
C 0.52307385 -0.43529338 -0.29621688
O -1.1661847 0.6626084 -0.36323476
C -0.4282098 1.293014 0.57319933
N 0.83073604 -0.4875254 -1.559456
H -0.36045927 -1.6332316 1.2389686
H -0.7914706 1.2218784 1.6138527
H -0.23097329 2.3536353 0.34370327
H -0.5827425 -2.2575943 -0.531778
H 1.5354542 0.23839815 -1.741509
