11

O 0.00331985 0.18899324 -1.10530388
C -1.88180339 0.20528780 0.34920029
C -0.57912235 0.08179082 0.10984332
O 1.51343618 -0.68001916 0.29229405
C 1.40007212 0.06581257 -0.88252549
N 0.45639333 -0.11556743 1.06234124
H -2.56414910 0.43877750 -0.45967204
H -2.26832483 0.07902554 1.35243538
H 1.84041363 1.06415978 -0.76204093
H 0.22367971 -0.83800766 1.74225881
H 1.85608469 -0.49025304 -1.69883102
