11

C -0.53332185 0.65177874 0.95404689
C 1.07508782 0.06451313 -1.57515597
N 1.95767975 0.74355633 -1.92916813
C 0.07549787 -0.79387136 -1.08194324
N -0.02029134 -0.64172265 0.40965890
H -1.53915324 0.80065671 0.55768834
H -0.54720327 0.63805142 2.04797728
H 0.12282171 1.44217983 0.58502895
H -0.91264427 -0.68580034 -1.51665610
H -0.59417408 -1.40832454 0.76208760
H 0.91570113 -0.81101705 0.78643562
