11

C 0.61010486 -1.0206476 0.61882687
C -1.0036166 1.3652118 -1.5414698
C -0.37477273 -0.5116561 -0.3125004
C 0.020206973 0.63052374 -1.0629767
O 1.4988463 -1.6451279 0.05853523
N 0.47723997 -0.9093023 1.9726194
H 1.0239403 -1.5567307 2.523725
H -2.0126328 0.9588094 -1.520338
H -0.42870915 -0.6545555 2.3358543
H 1.052983 0.97936434 -1.1256772
H -0.86359006 2.3641107 -1.9465984
