11

C -0.47631037 0.54330295 -0.3848055
C -1.2267808 -0.68234605 -0.104438916
C 1.7838147 1.4628016 0.5989566
C 0.54283607 0.967777 0.28463548
O -1.8292863 -0.84980255 0.93924016
N -1.2007991 -1.607274 -1.1270217
H 1.9175024 2.0273607 1.5169193
H -1.881913 -2.3471956 -1.0380327
H 0.7099475 0.54033947 1.3575584
H 2.666824 1.2163519 0.013341309
H -1.005835 -1.2713152 -2.0563524
