11

O 0.51810133 -0.12115077 -1.9848436
C -0.4390262 -0.74655527 0.15389216
C -0.45545384 0.21640982 -1.0205339
C 0.3748076 0.15716693 1.4751736
O -0.98784226 -0.0882731 1.2878479
H 0.8415352 -0.6603462 0.69057095
H 0.69700533 1.1667458 1.2211946
H 0.74604934 -0.24432391 2.4203286
H -0.31015676 1.2741311 -0.75942576
H -1.4830214 0.12789366 -1.4166063
H 0.49800178 -1.0816978 -2.0675983
