11

O -0.01953955 1.70209153 -1.39809256
C -0.73038220 1.52483903 -0.20201082
C -0.54169803 0.27259168 0.60742515
C 0.64756302 -1.73402718 0.52482974
O 0.31652605 -0.46694046 -0.05424531
H -1.81862775 1.58044756 -0.37960521
H -0.50643607 2.34843713 0.49645182
H 0.08885739 -1.85274806 1.45593102
H 1.72515318 -1.74620750 0.70493846
H 0.45830253 0.88029875 -1.55782708
H 0.38028159 -2.50878257 -0.19779525
