11

O -0.604921 1.3037487 0.74262834
N -0.27288976 -1.6660403 -0.24681534
C -0.7198692 0.7670053 -0.581955
C 0.3982582 0.33876163 1.084775
O 0.34296396 -2.485785 -0.8795675
C 0.33373368 -0.3184753 -0.30571115
H 1.2422183 -0.32044423 -0.9137263
H -1.7265668 0.386531 -0.78382874
H 0.0809076 -0.30828956 1.9097414
H 1.3600494 0.80796015 1.3234932
H -0.43388444 1.4950275 -1.3490341
