11

O -0.76388777 1.03987227 0.97587303
N -0.22369827 -1.44396697 -0.88090594
C -0.51530716 0.99496971 -0.43551602
C 0.39978657 -0.23372851 -0.30299447
O 0.52891813 -2.06928975 -1.58387995
C 0.08663313 -0.09243479 1.19752096
H -0.45956390 -0.93750134 1.63051927
H -1.43276882 0.82245470 -1.00775410
H 1.44142771 -0.13620404 -0.62001703
H 0.95233080 0.15586485 1.82289346
H -0.01387041 1.89996394 -0.79573899
