11

O -2.2978559 -0.62530655 -0.4250183
C -1.1550224 -0.37462732 -0.16199435
C 0.11581033 -1.2120695 0.04243527
N 0.7562643 -0.047896884 0.7304596
C 0.85849273 0.9806584 -0.28421527
C -0.44146875 0.81163806 0.4138293
H -0.05909728 -2.037819 0.7378089
H 0.65779924 -1.5766739 -0.83494425
H 0.9562278 0.69353217 -1.3293028
H 1.455694 1.8372372 0.015284447
H -0.8468444 1.5513271 1.0956576
