11

C -0.11826993 0.99606706 -0.94558649
C 0.47198042 -0.45806036 0.99910728
O 0.25251935 0.85157245 0.43277842
C 0.52008480 -1.54308138 0.02387311
C -0.79727073 0.12285362 1.53167251
N 0.53002338 -2.44063262 -0.70918502
H -0.58916557 1.97733194 -1.02048836
H -0.81882599 0.21484900 -1.24967085
H -1.59896290 -0.22793449 0.85352829
H 0.79004769 0.96001474 -1.55183463
H 1.35783982 -0.45297990 1.63580588
