11

C -0.6212608 -0.2787134 1.5915741
C -0.71424896 0.7316739 -0.9245393
O -0.22769715 0.8656244 0.4184342
C 1.2836423 -1.0017277 -0.03102214
C 0.7161859 -0.086270794 0.9541673
N 1.7334895 -1.7726862 -0.7701647
H -0.8887612 -0.31653148 -1.1782295
H 0.017799817 1.178042 -1.601841
H -1.1435645 -1.0369406 0.9768119
H 1.4958156 0.42803487 1.517927
H -1.6514003 1.289495 -0.95311797
