11

C -0.8225739 0.74520224 -0.8360093
C 0.5005705 0.623427 -0.12944998
O 0.4916177 0.6835841 1.2888911
C 0.8695569 -0.5425666 0.6906239
C -0.054461304 -1.6546732 0.8569754
N -0.7739186 -2.5520802 0.96685416
H -1.151137 1.7895 -0.83332896
H -0.72404736 0.42098212 -1.8765577
H -1.5891603 0.13893747 -0.34762272
H 1.3359922 1.161011 -0.5817717
H 1.9175615 -0.81332386 0.80139595
