10

C -0.059616476 1.168954 0.81511873
C -0.8755408 -0.021093009 -0.9291221
N -0.93562925 1.0815024 -0.16534373
C 0.9546038 -0.9313289 0.29655638
N 0.8518666 0.22141114 1.0436327
C 0.03290203 -1.0549282 -0.75283426
H -1.6108143 -0.06694598 -1.7334491
H -0.07395772 2.0424607 1.4613012
H 1.6975777 -0.51649064 1.366662
H 0.018608492 -1.9235415 -1.4025221
