10

O 0.2564254 1.0688295 -0.52539617
C -1.5268667 -0.5160391 -0.142734
C -1.0614698 0.6749383 -0.4311698
O -1.9665983 -1.5671161 0.1358499
C 1.2053224 0.1120773 -0.091690645
O 1.1343507 -0.17590712 1.2623818
H 0.46630552 -0.85566026 1.4156351
H -1.7854034 1.4567391 -0.63229567
H 1.1097592 -0.7875942 -0.72138226
H 2.1681747 0.5897323 -0.26919842
