10

O 0.6068846 -1.754766 -0.12897813
C -0.11493057 0.690194 -1.0426005
C -0.94753575 1.3135289 -0.02608722
O -0.83894694 0.8216201 1.105201
C 0.59170055 -0.7952073 0.78105175
O -0.27460015 0.048070505 -2.0409162
H 0.09336663 -1.1163039 1.685039
H -1.4174438 2.2902932 -0.18355733
H 0.8939195 -1.4111774 -0.99296474
H 1.4075856 -0.086252086 0.84381235
