10

O -0.5635075 -1.8798292 -0.7878639
C 0.21176705 -0.9909913 -0.04773076
C -0.31671748 0.42057276 -0.1472666
O -1.2934539 0.6931367 -0.809506
C 0.40353942 1.5262914 0.6101894
O 1.3763434 1.3152437 1.2849435
H -1.2641346 -1.3585496 -1.2072846
H 0.24055931 -1.2696836 1.0161433
H 1.2588689 -0.9840132 -0.39224324
H -0.05326447 2.5278223 0.48061892
