10

O 0.29466916 -2.47445485 -0.36340065
C -0.31985840 -1.49120617 -0.54035721
C -1.03756935 -0.40977083 -0.72367457
O -0.68116990 0.89670657 -0.46488338
C 0.53612421 1.06280165 0.23831520
O 0.51303171 0.55738992 1.52886156
H -2.03201395 -0.53669785 -1.13684940
H 0.71924524 -0.38550135 1.51251218
H 1.35268862 0.63794764 -0.36812879
H 0.65485279 2.14278522 0.31760507
