11

C 1.1376729 0.0093295425 -0.11166115
C -0.19710182 0.2005671 0.16829456
C -1.260326 0.33205047 -0.88112736
O -0.29678535 0.8536002 1.4234816
C -0.43378878 -0.559221 1.4962808
N 2.3186202 -0.037503693 -0.3840854
H -1.1680413 1.2817187 -1.4143625
H -1.1921527 -0.49355948 -1.5940793
H -2.227088 0.28471443 -0.3787469
H 0.4843848 -0.9638668 1.9751592
H 2.8346064 -0.90782946 -0.2991534
