11

N -2.0053225 -0.52174985 -1.9117895
C -1.5772691 0.024214186 -0.9900503
C -0.99798656 0.69604975 0.19223635
O -0.31235525 -0.20518616 1.02938
C 0.8056987 -0.82191133 0.43797854
C 1.8558333 0.15718286 0.08130383
N 2.6526675 0.94394094 -0.19959529
H -1.8033395 1.1191171 0.7941773
H -0.34398678 1.5120753 -0.1477042
H 1.1979158 -1.5199821 1.1791953
H 0.52814436 -1.3837508 -0.4651315
