11

N 0.04484194 -0.0026053088 -1.9190333
C -1.101607 0.2743984 -0.48639905
C 0.8236938 -0.96498454 0.27352843
O 0.7274339 0.3161552 0.9124374
C -0.2846838 1.1967041 0.409331
C -0.034500975 -0.77369976 -0.96002764
N -1.759887 -0.7340689 -0.254429
H 0.16722134 2.0297947 -0.13370042
H -0.8987985 1.5474637 1.2393348
H 1.8556082 -1.1443247 -0.02744529
H 0.46067786 -1.744833 0.9464031
