13

C -0.01268078 -1.35147882 -1.19718585
C -0.42860153 -0.19936614 -0.33994810
O -1.73702132 0.16219133 -0.51820138
C 0.33348476 0.45467228 0.53510311
O 1.65270361 0.22842038 0.80945507
N -0.23755050 1.50580967 1.29546474
H 0.92840766 -1.80218875 -0.86244931
H -0.77784845 -2.13382824 -1.16513228
H 2.00567792 -0.40376842 0.16886415
H 0.10850713 -1.04250206 -2.24166690
H -1.90805397 0.89577695 0.09165610
H -0.18164341 1.30558713 2.28992879
H 0.25461903 2.38067443 1.13411175
