13

C 0.20023473 -1.5196681 -0.5987624
C -0.2080195 -0.05561924 -0.5830777
O -1.5729003 0.13369514 -0.22986875
C 0.7353166 0.7678783 0.30277097
O 1.9421581 0.61835784 0.26126435
N 0.09903207 1.6540928 1.107629
H 1.249038 -1.6132995 -0.88691103
H -0.42586008 -2.076289 -1.3021386
H 0.08576052 -1.96398 0.39893094
H -0.11347363 0.3607335 -1.5909919
H -1.7577451 -0.4364259 0.5258793
H -0.88732046 1.8109915 0.9732546
H 0.6537792 2.3195324 1.6220211
