13

C -0.6094056 -0.15561719 0.2406536
C -0.43593365 1.12731 1.0431994
O -0.5165256 -1.3390669 1.0063534
C 0.16826458 -0.19964336 -0.9792271
O -0.41783667 0.5090302 -1.8813599
N 1.2424057 -0.932717 -1.2526778
H 0.4915536 1.1247056 1.6432066
H -0.05473526 -1.1501076 1.8342943
H -1.2784058 1.2540947 1.7303497
H 1.4993814 -1.1242124 -2.2102106
H -1.2976419 0.39911646 -1.0437862
H 1.6110549 -1.5173966 -0.52031446
H -0.40217572 2.0045042 0.38951954
