12

N -0.29212934 -0.8359592 1.7673421
C 0.098198466 0.29232144 1.0858054
O 0.8476861 1.131545 1.533339
N -0.4927478 0.37671727 -0.18569687
C 0.2696016 0.9364428 -1.2755911
C -0.06891168 -0.51302874 -1.2555363
H -1.1459054 -1.2857926 1.4765352
H -0.10073669 -0.8202642 2.757256
H -0.2780253 1.612348 -1.9264458
H 1.296129 1.217363 -1.056757
H -0.8679186 -0.9003585 -1.8841933
H 0.7347596 -1.2113339 -1.0360577
