12

O -0.10095195 -0.1298465 -1.4765376
C -0.08679034 -0.8926995 -0.36655378
C 0.88343054 0.7717406 -0.909681
O -0.43277794 0.59795016 1.5308386
C -0.8985619 -0.51115334 0.8537373
O 0.46579778 1.7964801 -0.30384308
H 0.2417204 -1.9291756 -0.50312847
H -0.21031788 1.3415097 0.81200075
H -1.9256128 -0.38524726 0.45694837
H 1.7402494 0.8154509 -1.5930468
H 1.2193493 -0.10033986 -0.02679997
H -0.89553463 -1.3746694 1.5260655
