12

O 1.1485232 -1.2633389 -0.45627928
C 1.0211086 0.055024218 -0.9555587
C -1.0098081 0.8638871 0.010418774
O -0.31213728 0.4354277 -1.1168699
C -1.0408992 0.31518197 1.2296591
O -0.372525 -0.75096357 1.7234747
H 1.5390357 0.694608 -0.23696701
H -1.7038856 0.7608306 1.966754
H 0.23571372 -1.095842 1.039931
H -1.6536467 1.7126069 -0.20582722
H 1.4772317 0.1324943 -1.9507262
H 0.6712886 -1.8599162 -1.04801
