10

N -1.40349119 -0.73836280 -1.00773230
C -1.69960886 -0.12306305 0.13999777
O -0.63414870 0.37671171 0.78291461
C 0.70261010 0.23985574 0.28796112
C 1.59764225 0.90103053 1.24612547
N 2.31720889 1.41518602 1.98680381
H -2.18385962 -1.12451895 -1.51621459
H 0.98521112 -0.81554347 0.21349121
H 0.81504664 0.72596595 -0.68728263
H -0.49661025 -0.85726152 -1.44606421
