10

N -0.24782766 1.9305317 2.744308
C -0.10052972 1.2102762 1.8553357
O -0.7026465 0.73354125 -0.35385975
C 0.10392231 0.27894902 0.7385803
C -0.74801314 0.098878875 -1.5343121
N 0.039161842 -0.9777146 -1.6040674
H 0.02844202 -1.4769343 -2.48003
H 1.1667222 0.28045675 0.47306266
H 0.66034085 -1.3540823 -0.8961205
H -0.19957218 -0.7239024 1.057103
