11

N 0.69265518 -1.22534083 1.22274467
C -1.04951750 -0.10559407 -0.25320419
C 0.19253500 -0.28312427 0.31966141
N 0.95697664 0.75049015 -0.11219393
C -0.91697839 1.08084176 -1.00722115
N 0.29397972 1.59576366 -0.92841977
H -1.91644352 -0.74118666 -0.14742911
H -0.01076313 -1.91467549 1.45741471
H 1.52801271 -1.69489271 0.89431602
H 1.89852849 0.96848652 0.16774328
H -1.66898503 1.56923157 -1.61341190
