11

N 0.08632215 -1.10774244 -1.47374181
C 0.05871961 -1.51357946 -0.05898862
C 0.23223415 0.88428474 0.42995684
N 0.59599089 1.84152050 1.16237787
C -0.64954420 1.07805243 -0.76489772
C -0.42551314 0.00071148 -1.50843406
O 0.59569043 -0.42119139 0.70380294
H 0.73126441 -2.36000430 0.07786871
H 1.10905928 1.49564228 1.97670348
H -1.38297847 1.85569977 -0.83072736
H -0.95124525 -1.75339364 0.28607950
