12

O 2.4318323 -0.6826408 -0.29009235
C 1.2831051 -0.097731076 -0.6908963
C -1.1602082 0.49147663 -0.40063843
O -1.5524565 1.5212475 0.48585504
C 0.13388026 -0.1588576 -0.020478582
O 0.14894202 -0.7943552 1.2256976
H 2.2495143 -1.1153977 0.5568759
H -1.3733873 1.2137349 1.3814013
H -1.9513694 -0.27924183 -0.46175647
H -0.51863396 -1.4944918 1.2257416
H -1.0742177 0.9418281 -1.3923625
H 1.3829988 0.45442885 -1.6193471
