12

O -0.66191596 1.489798 -0.8117108
C 0.18608712 0.4175109 -1.1331681
C 0.48164368 -0.40233582 0.12202433
O 1.0388606 0.45193174 1.0861444
C -0.79083323 -1.0135388 0.6673265
O -1.1317278 -0.8233804 1.809682
H -0.25728714 1.9166495 -0.042157736
H 1.1390445 0.7560068 -1.564395
H -0.3275476 -0.19805014 -1.8809223
H 1.1677461 -1.2281791 -0.13211526
H 0.5307476 0.29061776 1.8997518
H -1.374818 -1.65703 -0.02046022
