11

C 1.319016 0.3747572 -0.61560863
N -0.8393616 -0.78543055 -0.85136366
C -1.1931939 -0.57318074 1.2740136
N -1.4303982 -1.3627819 0.0812301
C -0.17735198 0.41370496 -0.32471138
N -0.4789686 0.45855683 1.0879076
H -0.6390823 1.276508 -0.820221
H 1.7954228 1.277645 -0.22719285
H 1.7691429 -0.49732965 -0.13200131
H -1.6159323 -0.89283603 2.2202885
H 1.4907072 0.31038684 -1.6923409
