10

N -1.0493704 0.26440993 0.35931456
C -0.66125107 -0.96719205 -0.10007771
C 0.6683252 -0.8874163 -0.43676624
C 1.0942787 0.44385585 -0.16859251
C 0.011894042 1.1305364 0.3218856
H -1.9735916 0.49668407 0.6789673
H -1.3600307 -1.7895547 -0.14781873
H 1.2748643 -1.6900855 -0.8320229
H 2.087553 0.842891 -0.32108688
H -0.09267166 2.1558712 0.64619744
