10

N -1.29862713 -0.09510140 0.53584769
C -0.68980286 -1.13336335 0.08845112
C 0.65791595 -0.85871901 -0.43359301
C 0.85663598 0.45863185 -0.27916345
C -0.38380760 1.02347924 0.34841646
H -0.86465559 1.78341953 -0.28146305
H -1.15491078 -2.11620930 0.10693281
H 1.33132825 -1.59643678 -0.85340667
H 1.73467298 1.03250998 -0.54806547
H -0.18874938 1.50178912 1.31604351
