12

C -0.46782437 0.49511543 -0.73490214
N 0.2600513 -0.17122546 0.23863123
C -1.9616998 0.30662882 -0.5871061
N 1.8818595 -0.8711002 1.3459401
C 1.593814 -0.13330664 0.32198277
O 0.057039488 1.1653743 -1.603848
H 0.54826725 -0.9496533 1.3239851
H 2.8217285 -1.0382189 1.6720406
H 2.2495277 0.40818855 -0.352569
H -2.4672422 0.76099455 -1.4412017
H -2.212705 -0.7560578 -0.521132
H -2.3028162 0.78326076 0.3381791
