12

C -0.7655154 1.174274 0.0034712693
N -0.18433751 -0.15442763 -0.14189668
C 1.0629066 -0.41199398 0.4026248
N 1.7042114 0.48584095 1.0307662
C -0.85790294 -1.1483701 -0.81835747
O -1.9436145 -1.0221099 -1.3289498
H -1.7407113 1.1594994 -0.48217317
H -0.113861516 1.918229 -0.46224007
H -0.8669593 1.4215313 1.0637331
H 1.4015616 -1.4410931 0.2263707
H 2.5911698 0.11535852 1.3522853
H -0.28694713 -2.0967383 -0.8456343
