10

C 0.2579235 -0.6248188 -1.4342872
N 0.113893084 -0.068942145 -0.10513373
N -1.0251641 0.41261542 0.3625757
C -0.66170853 0.78564507 1.5769064
N 0.6401577 0.5400799 1.8288256
N 1.1146287 -0.0034221662 0.74619776
H -0.3845524 -1.5007304 -1.5368706
H 1.3031433 -0.9063075 -1.5553753
H -0.022657705 0.12716147 -2.172603
H -1.3356636 1.2387191 2.2897646
