10

N -0.5731266 -0.7237585 0.67573786
C 0.62302965 -0.63327336 -0.19983715
O -0.5700895 1.3366936 -0.12683214
C -1.0158707 0.5198474 0.75286025
C 0.44060096 0.59156364 -0.98268616
N 1.7533786 -1.1587976 -0.18577012
H -0.7009174 -1.3981522 1.4147037
H 1.8043997 0.08613756 -0.92033726
H -0.06934393 0.49152198 -1.946326
H -1.6920605 0.8882175 1.5184869
