10

N -1.3210697 -0.6422423 -1.1581714
C -1.2070559 -0.7476953 0.09356287
O -0.18073569 -0.21560468 0.774087
C 0.76642907 0.47594652 -0.031827297
C 1.8231658 0.9820614 0.848876
N 2.6777542 1.3974923 1.5081266
H -2.162655 -1.1074194 -1.4888519
H -1.8766496 -1.2529964 0.7943695
H 0.2857337 1.3062621 -0.55851
H 1.1950836 -0.19580409 -0.78166115
