11

C 0.103903934 0.87075526 0.13135056
N 0.06678577 -1.5329003 0.09025622
C -0.92059225 -1.034614 0.7060275
O -0.3728305 1.611651 -0.9359998
C 0.9231909 -0.38735166 -0.23456146
O -0.9871922 0.30871925 0.8881678
H 1.8494803 -0.4536679 0.34499696
H -1.7503214 -1.5913986 1.1330558
H 1.194023 -0.3895433 -1.2947594
H 0.6173242 1.5835695 0.7799407
H -0.7237718 1.0147811 -1.6084749
