11

C -0.17533393 0.82212052 -0.28220479
N 0.62025386 -1.24203664 0.65956049
C 0.89873579 -0.28115804 -0.41299631
O -0.75012064 0.52999119 1.00753483
C -0.27067625 -0.68765412 1.36757350
O -1.15303662 0.83131457 -1.26172096
H 0.21281695 1.84199488 -0.24259583
H -0.70310988 -1.09371405 2.27802900
H -1.44261047 -0.07331105 -1.43328935
H 1.91037624 0.11744120 -0.28650477
H 0.85270464 -0.76498845 -1.39338591
