10

O 1.737487 -0.5754794 -0.6559161
C -1.5006286 -0.20566088 -0.13013051
N -1.0946482 1.0942042 0.3301897
C 0.16621448 0.9771822 0.47952178
C 0.6358155 -0.43609655 0.18384261
N -0.5914933 -1.0841235 -0.27734888
H -2.5510714 -0.37491545 -0.3465254
H 0.7974842 1.7916086 0.8224217
H 1.4844179 -0.2743463 -1.5389634
H 0.91642267 -0.91237307 1.1329083
