10

O 1.03710309 -1.35970469 -0.92513989
C -1.38958126 0.37466513 0.48970048
N -0.51276478 1.48111716 0.21892242
C 0.52022560 -0.58749481 0.11160112
C 0.60236544 0.92076910 -0.04235056
N -0.89760514 -0.79598740 0.40350909
H -2.42638510 0.58234058 0.73630268
H 1.08147568 -0.87382994 1.01122101
H 0.48698355 -1.22180177 -1.70798657
H 1.49818286 1.47992643 -0.29577985
