10

O 0.27810916 -0.59856504 1.9216926
C 0.6880221 0.9271789 -0.012003285
N 0.3275321 0.90726894 -1.2981648
C -0.50330687 -0.13844201 -1.4169487
C 0.047411554 -0.113218345 0.6784399
N -0.7259873 -0.848763 -0.29812074
H -1.0176772 -0.37347803 -2.3406422
H 1.3637966 1.6651005 0.4020513
H -1.2137338 0.008780859 0.5125528
H 0.75583327 -1.4358629 1.8511428
