11

N 0.3236185 1.7200137 -0.2795221
C 0.74078494 1.7052441 0.8904424
C 1.0589445 -0.9583796 0.14294909
N 0.3895007 -0.26141515 1.0008816
C -0.11487037 -0.40178153 -0.42700046
N 0.038429394 0.887756 -1.1568844
N -1.2643933 -1.0993819 -0.8324393
H -2.0858157 -0.511584 -0.790599
H 2.038117 -1.4018241 0.0560117
H 0.27475753 2.2684994 1.6916779
H -1.3990732 -1.9471463 -0.29551744
