11

N 0.91003735 -0.11333888 -1.06178522
C -0.19190619 -0.56234672 -0.14317627
C 1.20926670 -0.80722393 -0.03574177
N -0.25378917 1.47120834 0.81294443
C 0.36206111 2.40400767 1.20602606
N -0.91439654 0.45595655 0.59474456
N -1.10114841 -1.58231358 -0.51220901
H -0.68460169 -2.23238031 -1.16832131
H -1.95195994 -1.18925846 -0.89427416
H 2.09862227 -1.23114501 0.40766816
H 0.51781426 3.38683447 0.79412442
