11

N 0.7829449 -1.1176969 -0.32581058
C -0.38630405 -0.38699254 0.27307007
C 0.831998 -0.780547 0.90207523
N -1.6120118 -1.0393106 0.547589
C 1.2376665 2.2311802 -0.9245844
N -0.6727499 0.94769144 -0.21685693
N 0.31635955 1.5389295 -0.6491179
H -2.269934 -0.90956706 -0.21046862
H -1.4748375 -2.0258043 0.73358536
H 1.7309192 2.4311736 -1.8608402
H 1.5159489 -0.88905674 1.731359
