10

N -1.20680009 -0.73243666 -0.28622780
C -0.63063078 0.00865194 0.68151477
O -1.13538987 0.26774714 1.75477260
C 0.77100727 0.54873550 0.38017554
C 1.64181567 -0.08476160 -1.98033585
N 1.27154497 0.21548206 -0.91062129
H -2.13096406 -1.09750800 -0.11032303
H -0.75754482 -0.91914609 -1.16807373
H 0.73235533 1.63622286 0.49263614
H 1.44460656 0.15701313 1.14648277
