10

N -1.1258389 -0.8038561 -0.40132105
C -0.5257366 -0.30938673 0.70008093
O -0.9072772 -0.4833482 1.8393608
C 0.73576385 0.5284952 0.46844482
C 1.348556 0.8106059 -2.0368574
N 1.0929946 0.6992449 -0.899394
H -1.9595548 -1.357697 -0.27295956
H 0.56789076 1.5051942 0.9317458
H 1.555176 0.041263845 1.0028403
H -0.781974 -0.63051605 -1.3319408
