10

N -0.110199064 -0.4369133 -1.9851664
C 0.9988749 -0.4237127 -1.5228002
O 0.36333182 1.0592549 1.7132996
C 0.100196205 0.7570565 -0.6170035
C 0.066011414 0.28380167 0.8293977
N -0.38759747 -0.97570384 1.0142179
H -0.90384024 1.0880327 -0.89537954
H -0.511013 -1.607722 0.23869257
H -0.39857617 -1.3392148 1.9540374
H 0.7828115 1.5951209 -0.7292953
