11

C -0.23670694 -0.67883193 -0.1712664
C -0.025383234 1.7812321 -0.40863356
C 0.14328444 0.35451826 -0.8634255
C -0.5596977 -1.7245599 0.5555889
N 0.35635185 -2.3462894 1.4919821
O 1.4181137 -1.7831969 1.613524
H 0.61929715 0.17258899 -1.8275414
H -1.5270205 -2.2111204 0.5061754
H -0.59094393 2.351522 -1.1511328
H -0.5513125 1.8274134 0.5476532
H 0.9540177 2.2567234 -0.29292387
