12

O 0.36271036 0.510414 -1.7371117
C -0.92349577 -0.95503974 0.5194604
C 1.2947229 -0.102584146 -0.34081182
O -0.28145018 1.3242908 0.74492764
C 0.23707765 0.01196559 0.7217542
O -2.0675125 -0.5697264 0.43014297
H -1.2393788 1.219323 0.887971
H -0.20319563 1.1424996 -1.2321866
H 0.7306507 -0.25520062 1.6739526
H 1.4069121 -1.143562 -0.6712862
H -0.65678316 -2.0237987 0.44792786
H 1.3397422 0.84141916 -1.4447404
