11

N 1.60932049 -0.57137208 -1.41185908
C 0.50862686 -0.25182000 -0.64962217
N -0.71534451 -0.25670147 -1.13092426
N -1.44474259 0.06067526 -0.01460532
C -0.62115741 0.23828550 1.02161220
N 0.63142436 0.05300867 0.68105380
O -1.09764046 0.56438535 2.22550658
H 2.45691504 -0.13280059 -1.08559199
H 1.45496969 -0.46606425 -2.40366961
H -0.33567386 0.62436543 2.82080497
H -2.44669773 0.13803817 -0.05270482
