11

N -0.63015634 -0.71384853 -1.9385917
C -0.32571176 -0.27877823 -0.79950666
C 0.7083362 -0.8741984 0.13149653
O 0.44005245 -0.24288681 1.3689984
C -0.13050185 0.98821515 1.0497564
O -0.8486844 0.81076723 -0.17033426
H -1.3336257 -0.12862244 -2.383584
H 0.5934632 -1.954237 0.24025808
H 1.7217246 -0.6469689 -0.22810967
H -0.82939714 1.277065 1.8352191
H 0.6345005 1.7634928 0.8943976
