17

C -1.27894416 1.96446376 0.22062643
N -0.20473020 1.13890862 0.72972941
C 0.02290859 0.03047948 0.14235574
O 0.98688825 -0.80126317 0.56983224
N -0.64908811 -0.49822561 -0.93941691
C 1.66394227 -0.38994801 1.75064218
C -0.13074238 -1.61058310 -1.71336478
H -2.25759910 1.46160671 0.25867469
H -1.34713839 2.86435226 0.83796437
H -1.10786181 2.29687115 -0.81620532
H -1.19247497 0.17808855 -1.44682014
H 0.12584990 -2.43565087 -1.04577434
H 0.96906560 -0.31386375 2.59251096
H 2.40704899 -1.16744639 1.94010109
H 2.14689453 0.58008855 1.60943540
H -0.91529349 -1.94967993 -2.39479784
H 0.76127447 -1.34819906 -2.29549324
