11

N 1.0032316 0.30818763 1.0169656
C -0.7769301 1.1076994 -0.96541375
O -1.4783111 0.16777694 -0.3819051
C 0.6399919 -0.8670713 0.33003268
C -0.6257662 -0.90909123 -0.36274177
O 1.3789388 -1.8404859 0.3138286
H -1.0664917 -1.8536868 -0.65417403
H 0.24729918 0.80427897 1.4742022
H -0.90728444 2.1186547 -0.5942254
H 1.7614318 0.1037616 1.6515759
H -0.17610948 0.8599758 -1.8281447
