11

N -1.28837122 -0.51917003 0.43528749
C 0.64779040 0.01219931 -1.72358355
O 1.24922729 0.34182439 -0.63579045
C 0.91602872 0.47577625 0.62524850
C -0.39991773 0.25947279 1.18677662
O -0.70719549 0.73216763 2.27158577
H 1.72017471 0.87886186 1.22892130
H 1.27223975 0.06880635 -2.60307559
H -0.41957463 -0.17694224 -1.73733935
H -2.09456903 -0.75657979 0.99494983
H -0.89583245 -1.31641646 -0.04298078
