10

N 1.1157564 -2.0231292 -1.5278031
C 1.056868 -1.0471916 -0.9119779
O -0.67378753 0.9701954 -0.8686614
C -1.32227 0.580064 0.13415417
C 1.0575566 0.15715854 -0.12766698
N -0.6689504 -0.050509043 1.0516502
H -1.127053 -0.41173726 1.8801465
H 1.4229081 1.0267344 -0.66027147
H -2.397924 0.77631515 0.19652815
H 1.5368961 0.022099713 0.83390194
