10

N 0.8045964 -0.15937766 1.67809
C -0.37942603 0.13871092 1.3630652
O -0.7935583 0.21085708 0.08728913
C 0.2168396 -0.08613225 -0.8719681
C -0.38541806 0.04126615 -2.2013872
N -0.81341267 0.13000613 -3.2717793
H 0.9155553 -0.15815948 2.6901839
H -1.216685 0.37648508 2.02538
H 0.5958214 -1.1025954 -0.7267202
H 1.0556875 0.60893935 -0.7721539
