11

N -0.17781995 0.0388184 -1.9226658
C -0.48539418 0.31338254 1.5785131
C 1.0440856 -0.5820649 -0.36806098
N -0.85547197 0.44313565 -0.8644567
N 0.9654143 -0.57999057 -1.6939636
C -0.09466586 0.058237907 0.15862341
H -1.4338156 0.85221124 1.6051291
H 1.8871722 -1.0274246 0.13981259
H -0.51618683 0.1969634 -2.8596182
H -0.60351884 -0.6260265 2.129719
H 0.2702012 0.9127576 2.0969677
