11

N -0.120641045 0.6753633 -1.8256335
C 0.47898105 1.0745671 -0.7150734
C 0.14196706 0.18959598 0.3406201
N -0.7455802 -0.66219705 -0.19279857
N -0.77891266 -0.4394794 -1.5148263
C 0.39711356 -0.2611948 1.6985334
H -1.5163903 -0.77774936 -2.106307
H 1.2115421 -0.9907727 1.717807
H 1.1398774 1.9278332 -0.7230409
H 0.54092264 0.5112349 2.4544678
H -0.7488795 -1.2472008 0.866251
