11

N 1.65716025 1.26859211 0.31777450
C 0.01145999 -0.39716398 -0.69615677
O -0.53623056 0.27520688 -1.78412116
C 0.76492916 0.39076745 0.35698375
C -0.86968290 -0.80354042 0.50424013
O 0.05251239 -0.13628079 1.41189567
H 1.86547732 1.63952997 1.24453506
H 0.59701802 -1.23245116 -1.08879802
H -0.74022136 1.18122298 -1.52116605
H -1.85092979 -0.31902238 0.51682418
H -0.95149249 -1.86686075 0.73798812
