10

O -0.42600903 -0.2703199 -1.2729561
C -0.65138423 0.9893809 -0.83851665
C 0.32983017 0.14029756 0.9187953
C 0.22696747 -0.9478058 -0.17381911
N -0.29179347 1.3342584 0.32400483
H -0.20321168 -0.13171452 1.8354175
H 1.3657125 0.36554375 1.1920544
H -1.1489844 1.62858 -1.5629513
H -0.39600635 -1.8002999 0.109813444
H 1.194879 -1.3079206 -0.53184247
