11

C 1.3801354 0.005850621 0.022661386
N 0.23945518 -0.62503433 -0.63170284
C -0.9966625 -0.5019583 0.110541925
C -1.4263932 0.9025233 0.33873323
N -1.7063158 2.0160065 0.47020194
H 1.2458092 1.0821915 0.20960152
H 2.2659018 -0.1334097 -0.60287744
H 1.5641338 -0.49077302 0.9815709
H 0.114472106 -0.24039926 -1.5614089
H -1.7968606 -1.0253961 -0.42369026
H -0.8836752 -0.9896009 1.0863684
