11

C 1.16290829 0.46151794 -0.22585647
N 0.64492973 -0.75387505 0.44761662
C -0.75757442 -0.76819916 0.11670598
C 0.00851526 1.41793875 -0.48628198
N -1.02731787 0.65717747 -0.24187211
H 1.97467712 0.91231877 0.35362087
H 1.57949145 0.20717898 -1.21163351
H 0.73912000 -0.61459213 1.44988532
H -1.97346201 0.98426500 -0.39144906
H -0.96780049 -1.39285810 -0.76030215
H -1.38348687 -1.11087214 0.94956634
