9

O -1.7432648 -0.8257308 0.54226094
C 1.394004 0.17129241 0.28596795
C -0.6549558 -0.86525136 -0.16439794
C 0.62557405 -0.8168261 0.3877818
C -0.3056339 1.433363 -0.92449045
N 0.7526038 1.963652 -0.8317633
H -1.5342647 -0.6829395 1.4787761
H -0.8230963 -1.1192423 -1.2082217
H 2.289034 0.7416828 0.43408644
