9

N -0.88909334 -0.57347393 -1.2252574
C 0.23213549 -0.14723562 -0.5527635
C -0.051376443 0.36446777 0.7891405
N 0.9616735 0.8008264 1.4848962
N 1.8399895 1.1742004 2.0841622
O 1.3452544 -0.15560852 -1.0435299
H -0.7049313 -1.089141 -2.07342
H -1.7073774 -0.846775 -0.7045198
H -1.0262743 0.4727393 1.2412918
