9

N 1.6894295 -0.21763177 0.53046507
C 0.42173782 -0.522605 0.58809066
C -0.5318322 0.16837476 -0.26595044
N -1.787673 -0.007839866 -0.32362023
N 2.7884815 0.0332263 0.49144274
O 0.052609406 1.091071 -1.0623858
H 0.14700705 -1.2949995 1.2888749
H -0.6760375 1.4740504 -1.5739386
H -2.1037223 -0.7236463 0.32702166
