9

N -1.4908897 0.82901585 -0.8146556
C 0.21878779 -0.2476227 0.36459863
C -0.22643383 0.47719386 -0.7940653
N -2.5693135 1.1298653 -0.83578104
N 1.4052672 -0.72244644 0.6460548
O -0.55761987 -0.5481719 1.3474481
H 0.61256766 -1.0384109 1.661487
H 2.2321148 -0.63472915 0.07158628
H 0.37551925 0.7553061 -1.6466728
