10

N 0.47965252 -0.05979884 0.17323962
C 0.70902869 1.10528026 0.62409257
O 1.86355925 1.41622530 1.20456529
N -0.97125916 -1.50792801 -0.83075017
C -0.80735600 -0.22678736 -0.40664041
O -1.65202123 0.63711285 -0.51348552
H 0.01302656 1.94137923 0.58717998
H 2.40857103 0.61349775 1.19720699
H -0.21587133 -2.16565315 -0.74200899
H -1.82733040 -1.75332828 -1.29339911
