10

N -0.28227955 -0.33463576 -0.28878787
C -0.10278391 -0.61111975 -1.5594819
O 1.4716407 1.1373392 -0.0034127594
N 0.11345442 0.6250164 1.7535647
C 0.5214101 0.5411719 0.46081328
O -0.99682903 -1.4377592 -1.9158642
H -0.7436658 0.19827579 2.0603962
H 0.5848927 1.2905409 2.342884
H 0.6698674 -0.20883644 -2.2119613
H -1.2357069 -1.1999929 -0.6381502
