11

N -0.93710272 2.03987711 1.78945636
C -0.12806604 -1.26813070 0.65642169
C -0.86055538 1.17881257 1.02134721
C 0.35211800 0.19867713 -0.92855349
C -0.75665953 0.03448055 0.10461897
O 1.37350892 -0.58172459 -0.23513352
H 1.61913764 -1.34727378 -0.77123381
H 0.72664495 1.21241957 -1.08253674
H 0.09603051 -0.27060872 -1.87968774
H -1.73972567 -0.14737911 -0.34346178
H 0.25466935 -1.04914991 1.66876268
