11

N 0.42215136 -2.630426 1.4612494
C 0.32940674 0.49429187 0.0044980217
C 0.6949425 0.3498245 -1.4177366
C -0.71740663 -0.4253425 0.6163594
C -0.096181616 -1.6661823 1.0919765
O -0.22612354 1.6547847 -0.6341973
H -1.4655101 -0.666326 -0.14357525
H 1.0843586 0.8282115 0.716646
H -0.48929632 1.1825913 -1.5616559
H -1.2158861 0.07275456 1.4565998
H 1.6795453 0.8058186 -1.5901644
