11

N 0.46124357 0.33836734 -2.9254904
C 0.35872173 0.629764 -1.8130324
C 0.20935212 0.96741265 -0.39189124
C -0.5964845 -0.086848564 0.3428204
C 0.05972431 -1.1823895 1.0532546
O -0.4737757 -0.06201314 1.7493706
H -0.28260976 1.9439214 -0.30843836
H 1.1974206 1.0584347 0.069463804
H -1.611535 -0.2360086 -0.025758032
H -0.46863744 -2.1226497 1.2043076
H 1.14658 -1.2479907 1.0453935
