11

N -0.6486485 -2.2418776 -1.3776507
C 0.15385182 0.6889834 0.34233972
C -0.80495685 -0.47124937 0.54731566
C 0.37681547 1.2418308 -1.0111545
C -0.74722123 -1.4558439 -0.5372655
O 1.5176029 0.27896345 0.051712833
H 1.5169861 -0.5139534 -0.50782114
H -0.5966504 -0.9808415 1.4944329
H -1.821768 -0.07093369 0.5966784
H 0.21277858 1.2951492 1.2507731
H 0.8412103 2.2297726 -0.8493606
