11

N -0.8720091 0.92864025 0.22856055
C 1.1581042 -0.081710085 1.2143509
N -1.5712811 0.70683587 -0.8684829
N -1.1486223 -0.2613615 -1.6575298
C 0.10545273 0.026626222 0.15976821
C -0.07473901 -0.7162802 -1.0230095
H 2.147001 0.16925825 0.8140376
H 1.2090216 -1.0966681 1.6205527
H 0.5073537 -1.532176 -1.4261007
H -2.3912446 1.2494007 -1.0916791
H 0.9309631 0.60743463 2.0295322
