11

N -1.54126132 0.11120099 -1.32181543
C 1.29590466 -0.46491651 0.96281548
N -0.32873032 1.23573948 0.19974220
N -1.31519156 1.23888289 -0.67693744
C -0.62039352 -0.70636204 -0.82544304
C 0.14452919 -0.00711595 0.12812410
H 2.16131720 -0.71720869 0.33946765
H 1.58693139 0.33013146 1.65146360
H -1.87162373 2.06291515 -0.84393248
H -0.54518963 -1.73068175 -1.16027717
H 1.03370730 -1.35258481 1.54679304
