11

N 0.104053274 0.7147605 -1.7204505
C -0.0055817547 0.16809806 -0.43649524
C 0.8887448 -0.5054373 0.36827978
C 0.12746103 -0.86110264 1.5074595
N -1.1203796 -0.4445051 1.432058
N -1.1814135 0.18244158 0.23311588
H 1.0525273 0.63906807 -2.0674553
H -0.1902002 1.6819619 -1.7714742
H 1.9308518 -0.7053906 0.16525084
H 0.46001875 -1.4015074 2.3842943
H -2.066082 0.5316129 -0.09458262
