11

N 0.69740254 0.321282 1.7145629
C -0.58687687 -0.43953893 -1.5358248
C -0.89296126 -0.3842662 -0.19117779
C 0.23348793 0.24879651 0.3882959
N 0.6086198 0.11964746 -1.8088336
N 1.1654202 0.5163126 -0.67787844
H 0.34188914 1.3899856 -0.11221905
H -1.1857727 -0.8395473 -2.345167
H -0.04733087 0.16337372 2.3767126
H -1.7733618 -0.7464787 0.32202083
H 1.4394839 -0.34956694 1.8695083
