11

N 1.54072437 0.63661027 0.96059865
C 0.43979990 -0.25563043 -0.81647815
C 1.64162553 -0.09731357 -0.27601569
C -0.52136868 0.44742572 0.09658289
N 0.35085138 0.91986388 1.20296030
N -1.67179758 -0.24696400 0.62371444
H 0.17839275 -0.76383372 -1.73574099
H -0.87292777 1.37644597 -0.37680181
H 2.62111262 -0.42976194 -0.59258663
H -1.38342706 -1.12747407 1.03758133
H -2.32298556 -0.45936814 -0.12381389
