14

C -0.6010306 0.1950159 0.1271074
N -1.7421777 0.6916241 -0.15855251
C 0.93356144 -1.4381757 1.1946156
O 0.48136315 0.4781329 -0.61163706
N -0.27735394 -0.634537 1.1815662
C 0.27095443 1.3995801 -1.6767727
H 0.9420895 -2.2241275 0.42900965
H -2.4480484 0.3990082 0.5092115
H 1.8005575 -0.7951275 1.0364287
H -0.092738815 2.358046 -1.2934997
H 1.0232828 -1.9034176 2.1801038
H 1.2473034 1.5202348 -2.1470957
H -0.458299 1.0102323 -2.3914545
H -1.0794636 -1.0564891 1.6209695
