14

C 0.77590423 1.59312318 -1.30527340
N -0.59302333 -0.76662437 0.96761124
C 0.49328340 -1.72688204 1.06842996
O 0.65075564 0.49483803 -0.40752161
N -1.58226462 0.94961610 -0.36514919
C -0.58992187 0.25636401 0.04117014
H 0.18153180 1.42947717 -2.20755592
H 1.43759960 -1.19744617 1.20326618
H 1.83814316 1.64569385 -1.54590460
H 0.58347442 -2.37540599 0.18795980
H 0.31704581 -2.34961022 1.94981345
H -1.51168928 -1.13361133 1.15701075
H 0.44237068 2.52119801 -0.83065743
H -2.44320969 0.65927000 0.08680104
