14

C 2.1221306 -0.16523011 -1.1943105
N 1.1204497 -0.54101384 -0.21071279
C -0.033589784 0.20837443 -0.11733184
O -0.18884775 1.272588 -0.6884513
N -0.9981659 -0.36837876 0.68717414
C -2.1548338 0.42478162 1.0607202
H 1.8429376 -0.44752988 -2.217395
H 3.0695298 -0.64440876 -0.9364822
H 2.2511902 0.91716015 -1.1633443
H 1.016922 -1.534616 -0.052962165
H -0.6582409 -1.0000007 1.3988032
H -2.9236662 -0.23761861 1.465073
H -1.9209853 1.2000562 1.8010122
H -2.5448303 0.9158365 0.16820775
