10

O 0.7921524 1.9323516 -0.76153785
C 0.35349265 0.8890435 -0.3768328
C -0.92936337 0.4429994 0.3274453
N -0.50615144 -0.95622694 0.095943116
C 0.83456415 -0.564132 -0.3889956
H -0.9574117 0.76607263 1.3767477
H -1.8727294 0.723807 -0.15337513
H -0.4907824 -1.5275875 0.9316764
H 1.6627855 -0.7289456 0.31335244
H 1.1134435 -0.9773817 -1.3644238
