10

O 0.76509124 -2.160901 0.44136983
C -0.7517848 -0.26026303 0.8483519
C 0.63084805 0.04917194 -0.7694509
N -0.4306194 0.9226668 -0.21512747
C 0.29424053 -1.058956 0.26028067
H 1.6127987 0.48775685 -0.5702872
H -1.4268955 0.3548967 -0.1732282
H 0.5243617 -0.1664319 -1.8365058
H -0.2233406 1.84584 0.14111406
H -0.9947001 -0.013780134 1.8734832
