11

N -0.87383056 0.9888763 -1.3425341
C -0.28143117 0.2396601 -0.31062576
C 1.0152763 0.30315837 0.15693927
N 1.07632 -0.5579518 1.2095041
N -0.07651198 -1.1774995 1.45301
C -0.9101623 -0.7009856 0.53819335
H -1.5610816 0.45640925 -1.859886
H -0.19157815 1.3612336 -1.9890628
H 1.8687104 0.8812546 -0.16290863
H 1.8721681 -0.7540022 1.7923926
H -1.9378792 -1.040153 0.514978
