11

N -1.7513095 0.5556918 -0.6765776
C -1.1505377 -0.536289 -0.1774243
C 0.18259852 -0.29556426 0.15520331
N -0.9129902 1.5826383 -0.62950224
N 1.139565 -1.200108 0.60293776
C 0.35684994 1.0614843 -0.15353663
H 0.07490987 1.358214 -1.376538
H -1.6959642 -1.4704354 -0.10698718
H 1.1392448 1.7504731 0.14075746
H 1.8697592 -0.7903248 1.1683439
H 0.7478746 -2.01578 1.0533235
