11

N 0.76789625 1.76139588 -0.67447370
C -0.41414677 0.99559844 -0.79887517
C 1.06820308 -0.08474040 0.51911279
N 1.61677161 1.19232898 0.05364779
N -1.14656884 -1.20960126 0.03092819
C -0.29720511 -0.14709189 -0.09083180
H -1.04236900 -1.80590461 0.83447474
H -1.23077740 1.36578404 -1.40344560
H 1.71910871 -0.89868637 0.18050266
H 1.06017329 -0.09391718 1.61447173
H -2.10108600 -1.07516550 -0.26551161
