12

C -0.50034624 -0.8234334 0.48985294
C 1.7481018 -0.45912847 -0.0051717334
C -0.536102 0.46606517 -0.09588609
O 0.56024927 1.0858806 -0.22700594
N -1.6603086 1.0521648 -0.58069474
H -0.16249615 -0.80064267 1.5211856
H -2.5595496 0.7730942 -0.23051421
H 1.8480023 -1.2624196 0.717196
H -1.3250087 -1.5106059 0.30451554
H -1.5710294 1.9498522 -1.0293874
H 1.6899034 -0.80578375 -1.0304425
H 2.468584 0.33495682 0.16635272
