11

C -0.40999433 0.9179935 -1.1525974
C -0.07373752 -0.33293122 -0.3786893
O -0.056999456 -1.4384884 -0.8788989
C 0.27847824 -0.18611522 1.0913221
O 0.65383834 -1.4044977 1.6520238
H 0.5177135 1.3404614 -1.5567099
H -0.8700423 1.6814647 -0.51596385
H -1.067914 0.6812413 -1.9917525
H -0.59930235 0.23914704 1.6051555
H 1.0843756 0.5597485 1.1835681
H 0.5435843 -2.058024 0.9425425
