11

C 1.2983319 0.6366114 0.5722489
C 0.10184849 -0.29271555 0.41311723
C -0.74822414 0.05157897 -0.7824554
O -0.54282916 0.95046794 -1.5547863
C -1.9308712 -0.83153194 -0.9726789
N -2.8453896 -1.5205588 -1.1154312
H 1.945106 0.6012837 -0.3085786
H 1.8837341 0.34180006 1.4465543
H 0.97571886 1.6737353 0.70324147
H -0.5504699 -0.27079353 1.2958583
H 0.4130446 -1.3398775 0.30290985
