11

C 1.19213756 0.66499398 -0.19935849
C -0.00651607 0.13841077 0.52098741
C -0.99114136 -0.60531172 -0.01584572
O -0.00245039 0.50117188 1.81689544
C -1.01303379 -0.99380949 -1.38536509
N -1.05909255 -1.32554545 -2.49204762
H 1.19349070 0.34465597 -1.24161608
H 2.10241002 0.31058337 0.29260116
H 1.19289158 1.75871050 -0.15774697
H -0.78449125 0.14828810 2.26411327
H -1.82420451 -0.94214787 0.59738232
