11

C 1.0550114 0.593658 0.8525473
C -0.0512566 -1.3001212 -1.4379658
C -0.84604126 -0.3260799 -0.7435352
O -1.3497534 0.5960888 1.1631316
C -0.34258163 0.30714825 0.4401274
N 0.59281844 -2.1060035 -1.9618427
H -1.386254 0.36706465 -1.3904709
H 1.4443285 1.4072541 0.23169026
H 1.1055622 0.86503863 1.9082847
H -1.8954254 -0.115857236 0.29248533
H 1.6735916 -0.28819066 0.64554846
