11

C 0.5901572 1.6205248 -0.49753684
N 1.0725642 0.27134678 -0.83508706
C 0.44360122 -0.82067615 -0.4480037
O -0.7113631 -0.5698556 0.25591365
C -1.3184022 -1.6526569 0.8444808
O -0.8572342 -2.7430675 0.96349543
H -0.23675044 1.873468 -1.167562
H 0.23750322 1.6813002 0.53618336
H 1.6769701 -0.6630202 -0.20186825
H 1.4052477 2.3274932 -0.66097695
H -2.3022935 -1.3248564 1.2109615
