9

O 0.60625464 0.8749548 0.60986364
C -0.6792079 1.1214714 0.39140475
C -0.5021516 -0.7698363 -0.52879757
C -1.4771776 0.1865716 -0.30146676
C 0.83929914 -0.41288072 0.010475799
H -0.97863424 2.0857425 0.8049392
H 1.627365 -0.28758523 -0.7419867
H 1.2110227 -1.0806339 0.7972422
H -0.64677006 -1.7178042 -1.0416745
