9

O 2.5029888 -0.30594996 -0.048606925
C 1.4255896 0.22185102 -0.13261679
C 0.21025498 -0.234353 0.6656103
C -1.0257066 -0.09515119 -0.104434006
C -2.012359 0.03842463 -0.7795354
H 1.2535187 1.0989621 -0.7885646
H 0.1615851 0.39108825 1.5667844
H 0.37577903 -1.2651901 0.9968396
H -2.891651 0.15031828 -1.3754767
