11

N 0.57253456 0.0407241 1.6155307
C -0.07558698 0.0035370374 -0.47589254
C 0.62120914 0.74979025 0.4525571
N -0.10723574 -1.0992489 1.5082936
C -0.50505185 -1.1360748 0.24423161
N -0.25564077 0.26085058 -1.8439893
H 1.1362215 1.6957376 0.37524676
H -1.0814589 -1.9773248 -0.11851127
H 0.9844743 0.28230944 2.5005553
H -1.1539692 -0.057132695 -2.1831274
H -0.1354959 1.2368321 -2.0748944
