11

O 1.2251223 1.598565 -1.0081654
C 0.10628575 -0.049650226 0.3203788
N 0.5307178 -1.1927221 -0.53486735
C 0.8885798 1.2187513 0.08061045
C -0.63491166 -0.36449397 1.4800589
C -0.6616785 -0.5700294 -0.936598
H -0.579785 0.12760116 -1.7666787
H 1.096772 1.8094941 0.9968977
H -1.6177559 -1.058931 -0.7725843
H 0.301914 -2.035412 -0.006879797
H -0.65526044 0.516827 2.1478279
