11

O 1.8467094 0.84341955 0.792981
C 0.35542887 -0.5743009 -1.1878566
N 0.105068035 -0.99881333 0.21489313
C 0.6957425 0.5719464 0.949619
C -0.356077 0.36176196 -0.32050705
C -1.3596812 1.2606504 -0.14734794
H -0.24013954 -1.0754527 -1.9445305
H -1.9006492 1.067403 0.8003466
H 1.4128916 -0.43878755 -1.4106803
H -0.6749412 -1.633058 0.37315422
H 0.1156479 0.6152314 1.8799284
