11

O 2.22386375 0.13450504 -0.33025813
C -0.52318960 -0.00107360 -1.16886241
N -0.33010165 -1.25169556 -0.56091142
C -0.06931851 -0.08228225 0.32377299
C 1.39605467 0.21025450 0.53689024
C -1.13150345 0.33518016 1.15494471
H 0.28353613 0.34829305 -1.80883542
H -1.52724531 0.36255305 -1.36800319
H -1.23600033 -1.62238987 -0.27249918
H 1.65175710 0.54949808 1.56228452
H -0.73785328 1.01715728 1.93147734
