10

C 0.14980176 0.24958256 -0.028192028
N -0.70930034 0.75219035 -0.88572556
N -0.11418928 -0.9650946 0.42152986
C -1.5680683 -0.31399 -0.933461
N -1.2545826 -1.3591747 -0.16851994
N 1.3779153 0.5671143 0.66583735
H -2.4518082 -0.31141543 -1.5569171
H 1.3110766 1.3300996 1.3356446
H 1.0702945 -0.64828825 1.084501
H 2.1888604 0.6989762 0.06530287
