10

C 0.25883144 -0.62527555 -1.4353876
N 0.112777956 -0.06813455 -0.10516467
N -1.0283947 0.41344464 0.3634672
C -0.66316026 0.785856 1.5779405
N 0.63705665 0.54221314 1.8296429
N 1.1153897 -0.003420886 0.74407864
H -0.38237223 -1.5015669 -1.540003
H 1.3042445 -0.90715295 -1.5504689
H -0.017521428 0.1249853 -2.1773648
H -1.3368517 1.2390517 2.2932596
