10

C -0.096166655 0.050028097 -0.08190105
N -0.32938856 -1.6149248 1.1540623
N -0.47020242 1.0584176 -1.0823765
C 0.878589 -1.0632931 1.2807374
N -0.98341596 -0.8616085 0.2332025
N 1.0949149 0.020921724 0.5047757
H -0.41346312 2.0067563 -0.7046553
H 1.6261992 -1.4575695 1.9551601
H -1.4365674 0.8506593 -1.3497378
H 0.12950099 1.0106125 -1.9092674
