11

N -0.25139943 -1.17216551 -1.73439025
C 0.88244456 1.37045173 0.56820780
C 0.18205942 0.20710227 -0.04379908
C -0.72795579 -0.68534645 0.42264025
C -0.95826846 -1.52844074 -0.69603699
O 0.47238721 -0.07283384 -1.32748363
H 1.96698693 1.22897405 0.54012079
H 0.64773398 2.29425246 0.02995988
H 0.56870015 1.47967130 1.60751810
H -1.61698968 -2.38430015 -0.77511297
H -1.16569894 -0.73736468 1.40837604
