11

N 0.41507710 -0.73815921 -1.90072566
C 1.33178715 -1.45971503 -1.12257484
C 0.45708547 -0.15784480 0.75442085
N 1.26973899 -1.08197455 0.19751290
C -0.43035008 0.44752281 -0.10059403
N -1.33545929 1.42374990 0.28632359
N -0.41023883 0.14944311 -1.41574034
H 1.92648845 -1.55486129 0.80353059
H -1.96938016 1.65398802 -0.46646913
H 0.56024565 0.07595320 1.80892615
H -1.81499481 1.24189778 1.15538975
