10

N -1.3191549 -0.6413668 -1.1617689
C -1.2077651 -0.74689263 0.090753086
O -0.17893967 -0.21899545 0.7756958
C 0.7666651 0.47455963 -0.03073656
C 1.8202776 0.981088 0.8533367
N 2.674548 1.4005474 1.5101122
H -2.162022 -1.1062307 -1.4904578
H -1.8783484 -1.2531085 0.7901029
H 0.2862892 1.3058441 -0.556343
H 1.1984507 -0.19544478 -0.78069395
