10

N 0.7698187 1.8308204 0.42279762
C 0.26483595 0.71471477 0.010355757
O -0.64146894 -1.1869973 -0.8678025
C -0.23106241 0.11163256 -1.1527697
C -0.42392066 -1.4144927 0.3842214
N 0.10276179 -0.35418808 0.9630039
H 0.37338826 -0.2557686 1.9299495
H -0.6632128 -2.3699322 0.8268394
H 0.8234043 2.4923253 -0.34537825
H -0.37454435 0.4318857 -2.1712172
