10

O 0.8873881 -0.6169605 1.8740753
C -0.4780581 -1.2915057 -0.09726778
C -0.03642559 1.2485654 -0.76552474
N -0.9663689 -0.7919368 -1.2077165
N 0.49361867 0.81161374 0.3848573
C 0.29269266 -0.46414414 0.760256
N -0.75666726 0.48857072 -1.5628481
H 1.1116488 0.667315 1.54466
H 0.13191791 2.2800643 -1.0599374
H -0.6797462 -2.3315823 0.12944566
