10

O -2.1760979 0.04074679 -0.5014235
C 1.1204696 0.13833447 -0.14834042
C -1.1583611 -0.5936062 -0.3784989
O -0.5544673 0.8865669 1.4085025
C -0.093915105 -0.1724338 0.6316563
C 2.0783434 0.37927595 -0.83234674
H 0.12290798 -1.0322644 1.2828679
H -0.93093807 -1.4810464 -0.9951483
H 2.9372342 0.60629195 -1.426452
H -1.3451755 1.228135 0.9591835
