10

O -0.2020605 -1.5196986 0.6868044
C -0.49461734 0.83520126 0.87827855
C -0.110291995 -0.3389953 0.16517247
O 0.6069548 -1.586182 -1.6101462
C 0.45322973 -0.39349997 -1.1800879
C -0.8430798 1.8392483 1.444213
H 0.34605342 0.49142256 -1.8252336
H 1.3225249 0.021948842 -0.36436495
H 0.0705823 -2.0765212 -0.1473538
H -1.1492953 2.727076 1.9527178
