10

O -0.954123 1.8542063 0.99810255
C -0.29763812 1.1048471 0.027360767
C -0.14028542 -0.3388984 0.46497574
O -0.5693052 -0.7053652 1.5374937
C 0.5404345 -1.2356678 -0.45954958
C 1.105493 -1.9470367 -1.2475942
H -1.1488051 1.2413008 1.7263077
H 0.70589316 1.506735 -0.18284847
H -0.8478608 1.1119453 -0.92621994
H 1.606197 -2.5920663 -1.9380281
