10

O -0.79932484 1.27714218 0.89849972
C -0.05664854 -1.00260829 0.91049319
C 0.21218936 0.42981848 0.45582330
O -1.08940680 -1.29023259 1.46184155
C 0.35483807 0.38061249 -1.01282646
C 0.45988478 0.28256609 -2.20563481
H -1.52598494 0.70206452 1.19009287
H 0.54753926 0.21474510 -3.26860599
H 1.17116872 0.75412326 0.88661612
H 0.72574493 -1.74823114 0.68370068
