11

N 1.43246636 -0.45477949 1.03793420
C 0.29032985 -0.07730044 0.43003698
C -1.67430214 0.58804573 0.01233823
N -1.33125929 0.30821003 -1.19053391
C 0.03567434 -0.17556467 -1.05758420
N -0.74911748 0.38429920 1.05315078
H 2.27557212 -0.57947151 0.50321974
H 1.53428140 -0.21711249 2.01368080
H -2.65569827 0.98103519 0.26090603
H 0.11887673 -1.20459728 -1.42357704
H 0.72317636 0.44723576 -1.63957137
