12

N 0.56475914 -0.4042887 -1.3564997
C 0.03654501 2.696069 0.3454579
C -0.0002533578 -0.7049447 -0.057819176
C -1.4837694 -0.6706007 -0.04507596
N 0.28806338 1.6029394 0.681653
C 0.57605547 0.24329242 1.0009143
N -2.6355393 -0.6470674 -0.09535529
H 0.2319525 -1.0584623 -2.0540466
H 1.6604283 0.111675486 1.0236652
H 0.30656368 -1.7166729 0.2235606
H 0.2928317 0.52854234 -1.6542722
H 0.16236293 0.019517876 1.9878178
