12

N 0.32655007 1.25243 0.49712706
C -1.0492262 1.0774517 -1.1395715
C 0.4231074 -0.17100571 0.5774949
C 1.4668587 -0.76318175 -0.29888004
N 2.2860184 -1.1769854 -0.9989666
C -0.9509467 -0.7851859 0.22946513
N -1.4545676 -0.0252784 -0.92547184
H -1.6576136 -0.6176171 1.0471376
H 0.630848 -0.49451175 1.6097881
H -0.36621502 1.9151783 -0.88483655
H -0.903185 -1.8490798 -0.010801693
H 1.2483716 1.6377858 0.29751554
