11

N 1.0415462 0.13192928 1.7680745
C 0.37257117 0.060889132 0.5396969
C -0.9698231 0.12694253 0.27218828
N -1.0565138 0.06336979 -1.1098067
C 0.20517036 -0.02385024 -1.5861025
N 1.0942008 -0.034288988 -0.62194145
H 2.0100367 -0.12880206 1.6432925
H 0.6214139 -0.43123984 2.4944754
H -1.8423285 0.22643343 0.89801586
H -1.9006208 0.088991314 -1.6535901
H 0.42434737 -0.080374256 -2.644302
