11

O 1.369348 1.1987752 -0.42551875
C 0.696803 0.21654384 0.3094208
C -0.79322577 0.526291 0.5855228
N -1.1124501 -0.7129992 -0.1278339
C 0.1667611 -0.9691498 -0.52164674
O 0.6650453 -1.7671304 -1.2765304
H 1.9748996 0.74442697 -1.024583
H 1.2520946 -0.09569412 1.2042265
H -1.1009731 0.526757 1.6350873
H -1.1275661 1.4333805 0.0794385
H -1.9907365 -1.101201 -0.437583
