10

O -2.251076 -1.5342233 0.63540494
C -0.7019648 -0.24385533 -0.81070924
C 0.3958733 0.6254567 -0.24248417
C -1.5223006 -0.914785 -0.026955102
N 0.8602971 0.081167385 1.0301871
H 1.1866055 0.71829814 -1.0048256
H 1.3662043 -0.7817482 0.87133795
H -0.86989546 -0.31909397 -1.8796958
H 1.5067599 0.72758764 1.4741677
H 0.029496735 1.6411961 -0.04642784
