10

O -2.00096536 -1.90302403 0.44672262
C -1.04703844 0.32112435 -0.10029533
C -1.53885991 -0.86292850 0.20547990
C 0.41097056 0.65018409 0.12277661
N 1.22530190 -0.55344528 -0.01784100
H -1.74164792 1.05773156 -0.48955272
H 1.24399558 -0.84496174 -0.98761785
H 0.57487788 1.03597457 1.13702337
H 2.18574138 -0.36195217 0.25378090
H 0.68762416 1.46129683 -0.57047681
