11

N 1.0358516 -0.015614178 -1.5528249
C 0.2795628 -0.026839819 -0.3753956
C -0.37477672 0.96719384 0.3204549
C -0.87432885 0.3167899 1.4713293
N -0.5738428 -0.9690642 1.4953865
N 0.13370833 -1.1561135 0.3601143
H 1.0242038 0.897351 -1.9853168
H 0.733328 -0.70741904 -2.227817
H -0.47741303 2.0054905 0.035415184
H -1.4532623 0.7451743 2.2782657
H 0.54696953 -2.0569487 0.18038875
