10

O -0.6761926 1.6981597 -1.3876625
C 0.054009292 -0.37750342 1.2149485
N 0.04404969 -0.48221385 -1.0731452
C 0.38362816 -1.2158104 0.15245315
C -0.35779306 0.6892878 -0.5667251
N -0.40738177 0.8009018 0.75954807
H 0.53395915 -2.2871196 0.10912841
H -0.9296149 2.4442477 -0.827749
H 0.13875909 -0.5866123 2.273198
H 1.2165768 -0.6833376 -0.65399414
