10

N 0.9743755 1.4214721 0.55570525
C 0.25876707 0.31907666 0.10023557
N 0.24427281 -0.02586097 -1.182499
N -0.47227803 -1.1425474 -1.1859704
N -0.93556917 -1.5497452 -0.028856177
C -0.48361272 -0.6353899 0.826314
H 0.49949682 1.9482638 1.2736926
H 1.2541653 2.0243318 -0.20718889
H -0.6467718 -1.6535789 -2.0356545
H -0.6928457 -0.7060216 1.8842217
