10

O 1.11662399 0.43986097 -0.00987993
C 0.60492887 -0.19811611 1.12836248
C 0.16114389 0.25925450 -1.03104937
O -2.25832568 -0.00625820 -0.70711321
C -1.14161816 0.01874029 -0.28508666
O -0.81514171 -0.18258477 1.01361104
H 0.93648200 -1.24353657 1.19334566
H 0.90246773 0.36168996 2.01783948
H 0.38516754 -0.60724054 -1.67054840
H 0.10827152 1.15819071 -1.64948112
