10

O -1.2378304 0.087262034 0.43053663
C 0.6993197 -0.11244216 -0.8090437
C -0.09674652 0.30895826 1.2544225
O -1.5414163 -0.57116413 -1.7023191
C -0.8154778 -0.24231961 -0.8131388
O 0.986376 0.5548475 0.39953858
H 1.0521772 0.4850536 -1.6527439
H 1.1551886 -1.1123165 -0.8579734
H 0.065468974 -0.5859345 1.8707887
H -0.26705936 1.1880555 1.8799328
