10

O 1.318897 -0.9121488 0.49097782
C 0.40582576 0.13756692 0.36366156
C 0.0072150324 0.4448896 -1.079059
O -1.3882798 0.1837011 -0.7601745
C -1.0818188 -0.20858423 0.5068528
O -1.8017133 -0.658927 1.3406188
H 1.3259584 -1.196425 1.4123774
H 0.6814583 1.0249865 0.9494117
H 0.38639146 -0.28360885 -1.7974294
H 0.14606594 1.46855 -1.4272372
