10

O -0.92317057 -1.9042784 -0.40447918
C -0.6976335 0.42581323 -0.15404718
O 0.9706165 -0.7978439 -0.93640864
C 0.55409807 1.1625842 0.23404798
C -0.37291074 -0.8044781 -0.8025055
C 0.6369697 -0.31955674 0.45567706
H -1.6140298 0.4723217 0.42136186
H 0.42741272 1.7864559 1.1139535
H -0.17416677 -1.6022843 0.6138425
H 1.1928141 1.5812665 -0.5414424
