11

C 1.03872149 0.79803336 -0.24138613
C 0.56887917 -0.38858188 0.60733182
C -0.84414490 0.06223451 0.18610786
O -0.32252987 1.18480239 -0.52263545
C -1.57369679 -0.86712529 -0.69800194
N -2.13193846 -1.60209278 -1.39017454
H 1.57598166 0.53385651 -1.15883181
H 0.75447189 -0.29778628 1.67890865
H 1.58121663 1.58734389 0.28574830
H -1.51390016 0.36620100 0.99795562
H 0.86693936 -1.37688570 0.25497742
