11

C 0.33352008 0.5252279 -1.4600034
C 0.0016998168 0.58700156 -0.04471784
C -0.7123243 -0.58455056 1.979264
O -0.18574488 -1.7039313 -0.07752321
C 0.049164202 -0.68657523 0.6949588
N -1.315522 -0.53394115 2.9621577
H 0.9090529 -0.38289747 -1.6653433
H -0.6272612 0.3566174 -1.9759461
H 1.1510102 -0.55292815 1.0298411
H 0.7562883 1.4579027 -1.8413037
H -0.35988307 1.5180742 0.398616
