11

O 0.73902637 -2.1893075 0.43247908
C 0.1049275 0.9256164 -0.42182252
N 0.60911536 -0.1505333 -0.84435934
C -0.9692536 -0.50604904 1.0134066
O 0.30748212 2.1796231 -0.8047717
C -0.09403635 -1.1907656 -0.05202829
N -0.81964165 0.7569914 0.65462756
H -1.26158 1.543773 1.1111299
H -0.7898213 -1.6929405 -0.7411262
H 0.94420993 2.1601682 -1.5330892
H 1.2295717 -1.8365761 1.1855543
