10

O -0.79566264 -1.7338551 -0.74561536
C -0.29863727 -0.587566 -0.23483996
C 0.86484927 0.12490602 -0.4200859
C 0.7118692 1.235325 0.44504333
N -0.433769 1.2136053 1.1014736
N -1.0393448 0.08442216 0.6684837
H -0.15652762 -2.0996354 -1.3693417
H 1.6895548 -0.116831005 -1.0747771
H 1.4041641 2.0504305 0.60631835
H -1.9464962 -0.17080157 1.0233413
