10

O -1.4382569 -0.81195194 1.163358
C 0.039236397 -1.0187541 -0.7706292
C -0.22414562 -0.700767 0.58374614
C 0.63831633 0.033779126 -1.3757926
N 0.25367668 1.0916215 0.50144964
N 0.81460875 1.2063516 -0.6008386
H 1.0163331 0.10331522 -2.3897848
H 0.43663248 1.8629385 1.1467707
H -2.103577 -0.776907 0.46213147
H 0.5671759 -0.98962593 1.2795894
