10

O -2.0459409 0.26275173 -1.3306414
C 1.0911877 0.71059036 0.36177728
C -0.17377977 0.5555786 0.059542254
C -1.4519422 0.35285696 -0.11044053
N 1.7339276 -1.4090482 -0.008354877
N 1.9791033 -0.37629905 0.64441746
H -2.9824276 0.07100397 -1.2099754
H 2.4071474 -2.114331 0.31521657
H 1.543025 1.6868222 0.5165982
H -2.100301 0.26007476 0.7618603
