9

N 0.4183422 -0.40628338 -0.09233309
C 1.6494595 0.20101203 -0.20995909
N -1.6484485 -0.61136603 0.19661926
C -0.7074911 0.28025788 0.118803956
O 2.696103 -0.36891907 -0.40120086
H 1.5871435 1.3079269 -0.10907314
H -0.5756751 -1.3689184 -0.023935664
H -2.626022 -0.3955245 0.31745598
H -0.79341125 1.3618147 0.20362262
