9

N 0.59900606 0.39951771 -0.45328417
C -0.06526173 0.73522633 -1.6277304
N 0.3599965 -0.6290944 1.5904005
C -0.13208087 -0.22858724 0.40838468
O 0.4538651 1.3135581 -2.5511441
H -0.20789623 -1.1215973 2.2591786
H -1.1881226 -0.47604588 0.24056108
H 1.3214494 -0.42591554 1.8130687
H -1.1409557 0.43293825 -1.6794353
