11

N 0.21016107 -0.8957431 0.26961544
C -0.4473908 -0.38250327 1.4695907
C 0.21288684 0.27317643 -0.61690253
C -0.15902837 1.3432776 0.15055305
N 0.27137706 -0.3044133 -1.8143723
N -0.5760566 0.89445585 1.4168823
H -0.032930054 -1.3536632 -0.8966816
H 1.1638373 -1.1958168 0.48802295
H -0.31621882 2.3687153 -0.14690246
H 0.31941545 0.26059878 -2.6467044
H -0.6460531 -1.0080843 2.3268988
