11

N -0.62287176 -0.59581876 0.8158079
C -0.29179156 0.65719247 0.30425966
C 0.025392275 -1.5716661 0.0797807
C 0.6685294 0.3071592 -0.83158445
N 0.76820266 -1.1553441 -0.867565
N -0.75269914 1.7390913 0.77301
H 0.305109 0.68449223 -1.7940665
H -0.38721275 2.543276 0.26488057
H -0.11664824 -2.6198037 0.3276005
H 1.6586131 0.7451079 -0.65869087
H -1.2546228 -0.73368657 1.5865675
