10

N 1.6336935 0.13418344 -0.7388841
C 0.6461365 0.35154623 0.1764069
O 0.81404227 0.9457111 1.2229631
C -0.68003005 -0.26465344 -0.1671678
C -1.6582289 -0.40546703 0.8946989
N -1.9385289 0.54827625 0.14219975
H -0.7311254 -0.88646686 -1.0610814
H 2.5063944 0.61669666 -0.5927397
H -2.0014682 -0.8887471 1.8008205
H 1.4091148 -0.15107936 -1.6772162
