11

C -0.8579737 0.36509424 -1.0629886
C 0.705165 0.27055836 -0.22028656
C 0.5527732 0.3951829 1.2713925
C -0.91060823 -1.0006504 -0.99367917
O 1.6790974 0.17798802 -0.88451684
N -0.7305668 1.5449387 -0.91676956
H 1.0721117 -0.4411674 1.7457125
H -0.48520556 -1.5849401 -1.8002651
H -0.4915069 0.42782158 1.5759243
H 1.0458953 1.32426 1.5716443
H -1.5791812 -1.4790858 -0.2861679
