11

C 0.45911406 0.30008710 1.30958310
C 0.12412681 -0.81453646 0.34964575
C -0.56390934 -0.42551717 -0.96862850
C -0.15250537 0.87620572 -1.49858229
O 0.33123772 -1.98037528 0.57707370
N 0.18747497 1.90458521 -1.89537331
H 1.24460397 0.93047186 0.88041475
H -0.41005088 0.94601236 1.47156228
H 0.79999551 -0.12019522 2.25748509
H -0.37667583 -1.21332734 -1.70429546
H -1.64341157 -0.40341043 -0.77888460
