9

O -1.26540606 -0.92132620 -0.16032778
C -0.21742717 -0.03731913 -0.00693237
N 0.87322025 -0.72895907 0.72904759
N 2.02430927 -0.35604371 0.76064137
N -0.44752361 1.37776779 0.30531585
C 0.10641188 1.07843052 -0.81513825
H 0.51724944 -1.56743525 1.22578827
H -2.07125536 -0.41972781 -0.33917870
H 0.48042125 1.57461296 -1.69921597
