9

O -1.0688331 1.2288913 -0.68019575
C -0.3444562 0.35051188 0.010249792
N 1.7949784 -0.3627362 0.0041355947
N -0.42151567 -1.8288876 -0.14681727
N 0.9520631 0.56516546 0.21845391
C -1.0472167 -0.9106432 0.39895874
H 2.6512153 -0.02294159 0.4771396
H -0.4810591 1.8380783 -1.1584135
H -2.035176 -0.8574384 0.87648886
