10

N 0.90349543 1.9236752 -1.8491062
C 0.35320854 1.0783403 -1.2856033
C -0.32699895 0.021560099 -0.5728192
C -0.48248425 0.12198813 0.9283001
C 0.46493164 -0.8771602 0.3500449
H -1.1437938 -0.43159127 -1.1271839
H -1.4211607 -0.22528787 1.3460164
H -0.06606843 1.0000364 1.4110885
H 0.1910427 -1.9278284 0.36179137
H 1.5278279 -0.68373233 0.43747172
