10

N 0.39602185 -1.01511459 -1.02400317
C 0.41708719 0.33523268 -0.44592328
C -0.80416120 -0.20041008 -1.10971686
C 0.45251921 0.61623125 2.19051812
C 0.42763404 0.49847435 0.99296824
H -1.06062711 0.14568432 -2.10750839
H -1.64993995 -0.43602342 -0.46737624
H 0.47075241 0.72544664 3.25128400
H 0.31051341 -1.70658284 -0.28375511
H 1.04020023 1.03706176 -0.99648690
