13

C 0.124596514 0.21451852 0.56740373
N 0.75201315 1.2851107 0.3241849
C -1.0508255 -1.7932491 0.08771689
O -0.36941662 -0.6192779 -0.35387036
C 0.9599804 1.6397802 -1.0667183
O -0.10671189 -0.18779516 1.8342566
H 0.2984425 0.50126266 2.382204
H -0.38570243 -2.4396498 0.6683572
H 1.4796377 2.6022458 -1.1054606
H 1.571778 0.8970264 -1.5936023
H -1.3641983 -2.2983792 -0.82561463
H -1.9237312 -1.5373355 0.69540596
H 0.014137547 1.7357424 -1.614263
