11

C -0.73187 -0.17136815 -2.315038
C -0.16140734 -0.12283127 -0.97058517
C 0.31839097 -0.086464785 0.13123788
C 0.977521 -0.09756656 1.440171
O 2.085588 -0.56427747 1.6083499
N 0.24808611 0.4718454 2.438274
H 0.006975658 0.15304662 -3.0553856
H -1.6099778 0.47443357 -2.3976974
H -1.030212 -1.1942931 -2.562346
H 0.6141527 0.40278417 3.3775272
H -0.7172472 0.7346916 2.305492
