11

C 0.4473999 1.257473 -0.5603312
C 0.78687644 -0.21049055 1.443999
C 0.24482112 -0.041330665 0.09626788
C -0.9264703 -0.9346008 -0.24430291
O 1.2279372 0.12941828 -0.9099789
N 1.1793448 -0.35706893 2.5207675
H -1.7538368 -0.76789975 0.4508646
H -1.2667347 -0.71572644 -1.2611259
H 0.9789984 2.0532944 -0.04062645
H -0.635545 -1.9866182 -0.19200246
H -0.282791 1.5735497 -1.303531
