11

C -1.08739751 -0.30352707 -0.71899081
C 1.24004194 0.72888839 -0.16246168
C 0.11782026 -0.15498301 0.18169136
C -0.12702568 -0.41761876 1.59939765
O 1.34285558 -0.67585788 -0.30429513
N -0.35863967 -0.61487808 2.71402349
H 1.17967862 1.29286467 -1.09182501
H -0.80271589 -0.06697237 -1.74885153
H -1.46667854 -1.32787332 -0.68777960
H 1.84988265 1.16692464 0.62636038
H -1.88782167 0.37303282 -0.40726931
