9

N -1.8963047 -0.48422977 -0.086379774
C -0.2140956 1.0548657 2.421757
O 1.7594558 -0.83206856 0.2502857
C -0.7986076 0.077454194 0.12901598
O 0.14574598 0.32529533 -0.8552406
C 1.4135797 -0.148899 -0.6618775
N -0.4816351 0.6050467 1.3594601
H -1.9574556 -0.79517424 -1.0533329
H 2.0293171 0.19770974 -1.5036877
