9

N -0.69330317 -1.7291832 0.7252707
C -0.038164668 -0.7604126 0.26640767
O -0.4585476 -0.0074248393 -0.81539994
C -0.31308952 1.352399 -0.7840409
O 0.05979945 1.9786441 0.15892304
C 1.2857994 -0.46919096 0.78561807
N 2.3503263 -0.28826132 1.1910683
H -1.5814987 -1.8253967 0.23497263
H -0.61132115 1.7488265 -1.7628196
