9

N -0.33321774 2.1390612 0.03995389
C 1.2937523 -0.8811691 -0.22438799
O 0.1337196 -0.36372247 -0.76623183
C -0.679252 0.3673748 0.053517014
O 1.6117907 -0.81382364 0.9189015
C 0.16768451 1.5310177 0.94269
N -1.8845234 0.12115667 0.2624013
H 1.8559453 -1.3439654 -1.0467837
H -2.1658993 -0.75592977 -0.18006031
