12

N 0.98238873 -0.8109614 -1.5169384
C -0.23536144 -0.4042348 -1.0260056
O -1.1691611 -0.061745863 -1.719136
N -0.28102514 -0.44508323 0.37771437
C 0.43649867 0.5430628 1.1713306
C -1.0469882 0.5623477 1.075382
H 1.560342 -1.3892206 -0.9275147
H -1.6483196 0.19895709 1.9036362
H -1.501607 1.3384066 0.4654868
H 0.92488396 0.16145699 2.0649397
H 0.9797294 1.3185642 0.63711953
H 0.99861974 -1.0115495 -2.5060146
