11

C -0.48281969 0.86199976 1.05157531
N -0.01407284 -0.00097190 -0.01710948
C -0.25878005 -1.32993173 -0.18923119
N 0.37232154 -1.77795815 -1.23974568
C 0.82391157 0.31959839 -1.04183526
N 1.06213246 -0.72719902 -1.78255042
H -0.58255579 1.88126095 0.67355208
H 1.22026453 1.31188769 -1.20032382
H -1.46235475 0.51729276 1.38866163
H -0.89471534 -1.90802757 0.46554999
H 0.21666808 0.85204866 1.89145693
