11

C -0.93606627 1.302282 0.29614452
N -0.08751007 0.15984565 0.028150931
C -0.38072515 -1.1508752 0.00740116
N 0.69387656 -1.8567559 -0.27774426
C 1.6403451 -0.8957015 -0.42458305
N 1.2203189 0.34035376 -0.2494098
H -0.5763991 1.8284571 1.1830189
H -0.91773325 1.9793437 -0.5613214
H -1.9559295 0.95137763 0.46563762
H -1.3712013 -1.54112 0.20205311
H 2.6710238 -1.1172074 -0.66934764
