11

C 0.59530973 -0.55505306 0.025213426
C 0.6873573 0.24755535 -1.1925174
C -0.4797196 -0.7714008 0.70635414
C -1.3771012 -0.88670504 1.7428534
O 0.06582516 -0.02702126 -2.2032087
N 1.5489349 1.3220699 -1.1134583
H -2.2092288 -1.5802215 1.6629248
H -1.5042499 -0.6028475 0.1770742
H 2.2614977 1.308109 -0.403357
H 1.7736425 1.7560484 -1.9972682
H -1.3622679 -0.21053346 2.5953896
