11

O -0.59210604 -1.1740396 -0.7660051
C 0.62481755 0.6604642 0.4572701
N 0.63430876 -1.8728169 -0.97218204
C -0.47067508 1.6121122 0.87090445
C -0.36362496 -0.050936162 -0.08480828
O -1.4392214 0.71929544 0.21538861
H -0.7074354 1.6887023 1.9364746
H 1.6933923 0.58820677 0.5554426
H 0.69052476 -1.9587568 -1.9864147
H -0.49807587 2.5935402 0.38899943
H 0.42809528 -2.805772 -0.6150696
