11

O 0.6427121 1.4013598 -0.4701561
C -0.34930474 0.8425242 0.32169107
N 0.4981102 -0.8762849 1.5323764
C 0.33040577 0.41600075 -1.4930339
C -0.7522508 -0.1126445 -0.60763204
O -0.48208672 1.0330471 1.5433385
H 1.1959189 -0.23443465 -1.6502668
H 0.008472419 0.8792993 -2.433041
H -0.5076797 -1.0232601 1.7071512
H 0.93981975 -1.4653755 2.2517364
H -1.5241175 -0.8602316 -0.70216334
