10

O -0.05152015 0.5720459 -2.0409622
C -0.0805224 -0.17344292 1.0741593
C -0.16544043 -0.009893415 -0.90394306
C 0.9683507 -0.1654467 -0.060707536
N -1.1566422 -0.15817559 0.015538053
H 0.99418277 0.76715624 -1.3209726
H -1.9655427 0.45303142 0.032152183
H -0.13107553 -1.0636026 1.7061219
H -0.11290534 0.73545384 1.6821312
H 1.701115 -0.9571262 -0.18351717
