10

O 0.15147416 1.4024975 -1.5570534
C -0.02156658 -0.9834806 0.73017776
C -0.6283543 0.402838 0.62345594
C -0.010322002 0.5121208 -0.5648
N 0.54699475 -0.77492636 -0.6505027
H 1.5629408 -0.80360615 -0.69867235
H -0.2828183 2.2267647 -1.3079621
H 0.7617943 -1.1117489 1.4852407
H -0.71233755 -1.830486 0.75899786
H -1.3678054 0.9600272 1.1811185
