11

N -1.9998225 -0.5239636 -1.9144468
C -1.5787805 0.025516503 -0.99026
C -1.0007282 0.69677544 0.1918739
O -0.31300995 -0.20346329 1.0263697
C 0.8043779 -0.82037705 0.43626797
C 1.8578955 0.15437579 0.08338921
N 2.6596587 0.93722725 -0.1963177
H -1.8029803 1.1204652 0.80033547
H -0.34943667 1.5122086 -0.14686713
H 1.1929617 -1.5195091 1.1781796
H 0.52986455 -1.3792555 -0.46852425
