11

C -0.25703267 -1.03561859 -1.61494881
C -0.14317817 -1.09830786 -0.13001303
N 1.24253996 -0.80190263 0.45226106
C 0.35601947 0.06761695 0.57789802
C 0.09254859 1.42787586 1.08527623
O 0.34236204 -0.23131884 -2.28926218
H -0.72713950 -1.86116277 0.38198455
H -0.95046849 -1.77135752 -2.07043735
H -0.15855352 2.07440559 0.23942803
H 0.96778250 1.82373741 1.60403736
H -0.76488044 1.40603232 1.76377640
