11

C 0.545131 1.0653417 0.9910874
C 0.67008585 -0.38891396 -0.3398279
N 1.5189164 0.04667007 0.3749811
C -0.027342422 -0.9334884 -1.4810013
C -0.69538707 0.61785203 1.4067563
O -1.2257447 -0.4563919 1.0410703
H -1.097253 -0.87834555 -1.2641078
H 1.009125 2.0320249 1.1090035
H -1.2029219 1.272164 2.134075
H 0.260608 -1.9843619 -1.5798304
H 0.24478301 -0.39255095 -2.3922057
