9

O -1.2525792 0.036656946 -1.6164458
C -0.50963914 -0.13175316 -0.5156726
N -0.67417526 -1.1487162 0.28509066
O 0.25578788 -0.9789314 1.2918837
C 0.94801056 0.1413873 1.0559281
C 0.52573204 0.74535316 -0.077383675
H -1.8768438 -0.7022976 -1.666175
H 1.7109357 0.38244292 1.781658
H 0.87277114 1.6558582 -0.53888345
