10

N -2.16746 -2.5734289 0.43841898
C -1.4273835 -1.6870673 0.4182817
O -0.19558476 -0.1955506 -0.9113024
C 0.7761198 0.6833853 -1.1401075
C -0.48776793 -0.559632 0.44652444
N 1.2970494 1.2089187 -0.016739046
H -0.9307491 0.28787142 0.97975725
H 0.4272568 -0.8444553 0.97404206
H 0.6018474 1.9023335 -0.90688473
H 2.1066718 1.7776248 -0.2819908
