11

N 1.4738898 0.3699361 1.3600159
C 0.43790826 0.2017504 0.43930998
N -0.2761183 1.2333469 0.02248067
N -1.215871 0.6853079 -0.78007066
C -1.0994292 -0.65393245 -0.8899873
C -0.027580535 -1.0210662 -0.10636549
H 2.2849848 -0.19589876 1.1529686
H 1.7331678 1.3439785 1.4447187
H -1.8930908 1.2879233 -1.2128661
H -1.7757028 -1.2371124 -1.4978878
H 0.3578417 -2.0142334 0.0676837
