10

N -0.1591583 0.09700942 1.6895745
C -0.4640798 0.9506876 0.89666116
O -0.18062407 -0.38916585 -1.2860265
C -0.702338 1.3708009 -0.36975276
C 0.570864 -1.0181733 -0.49694216
N 0.1357288 -1.4295213 0.69088364
H 0.8809112 -1.8381716 1.2430338
H -1.7177192 1.3576274 -0.74742305
H 1.6352422 -1.1448154 -0.77019817
H 0.0011731714 2.0437226 -0.8498104
