10

N -0.98845300 -1.04265325 0.19370602
C -1.28133630 -0.17898035 1.22182094
O -0.68730560 0.84905535 1.44913196
C 0.78325651 0.06214719 -0.77489293
C 1.69835657 0.95714429 -1.01761517
N -0.00039923 -0.89564579 -0.73855904
H 2.67131013 0.87980441 -0.54637411
H -2.13494515 -0.54990156 1.81246180
H -1.53488804 -1.87865417 0.06275958
H 1.47440413 1.79768373 -1.66243916
