12

N -0.28922084 -0.8356155 1.7678317
C 0.100580044 0.2915492 1.0853727
O 0.8523028 1.1288987 1.5340506
N -0.49558938 0.3747339 -0.18443938
C 0.26826397 0.9362703 -1.2741185
C -0.07130495 -0.510578 -1.2573826
H -1.1408232 -1.2901181 1.4799162
H -0.10088517 -0.82064533 2.7591946
H -0.27949905 1.6133922 -1.9249344
H 1.2942795 1.2181436 -1.0550758
H -0.8677111 -0.89329654 -1.8914646
H 0.7296076 -1.2127342 -1.038951
