11

O -1.0741397 1.4549817 -0.72111696
C -2.2676954 -1.3509517 -0.6944057
C -0.4136877 -0.97396284 1.0192678
C 0.6950173 -0.27394384 0.7685334
N -1.4239285 -1.172215 0.10399162
C 0.07166484 1.2802896 -1.0413902
N 0.96658564 0.45196766 -0.38464013
H 1.9423555 0.5737501 -0.6237878
H 1.4875249 -0.27648064 1.5116333
H 0.55438316 1.7854183 -1.8972741
H -0.5380799 -1.4988533 1.9591888
