11

O -0.2817641 1.642376 2.163553
C -0.21633464 0.86853266 1.2316531
C 0.75233865 1.0195005 0.13696834
C 0.78058076 0.13441871 -0.8717852
N -0.102427624 -0.9206492 -0.8766041
C -0.99357384 -1.0441589 0.1528337
N -1.0874841 -0.24447809 1.1489294
H 1.4360666 1.8575928 0.16839294
H 1.4676409 0.18541662 -1.7107183
H -0.09826426 -1.5948473 -1.6236676
H -1.6567783 -1.9037037 0.08044443
