11

O -0.061955806 -0.6224761 -1.7155777
C 1.4252622 0.16811855 0.37082484
C 0.15759404 0.62035125 -1.3978605
C -0.96798944 -0.24764967 0.4810139
N 1.3184227 0.90386266 -0.6832344
C -1.152059 0.23760286 -0.7964489
N 0.3427159 -0.4042754 0.9681239
H 0.4551589 -0.8082031 1.8848747
H -1.7632605 -0.35026172 1.2085048
H -2.1203396 0.4402545 -1.2327952
H 2.3664508 0.06267631 0.91257465
