11

C -0.4894554 1.4380214 0.013118767
N 1.5308951 0.3474334 0.2565973
C -0.34291953 -1.2547703 -0.35079175
O -0.42659315 -0.6576827 0.986706
C 0.27970886 0.4441602 0.6374212
O 0.8605355 -1.4440392 -0.71168905
H 1.9905936 -0.37865418 0.8101582
H -0.77669686 -0.19124486 -0.9211651
H -1.0705376 -2.0698695 -0.4556718
H -0.0060955705 2.2595556 -0.50497764
H -1.5494351 1.5070901 0.24029393
