11

O 1.2005618 0.63565934 -1.9629806
C 0.16477087 0.6856366 -1.3568856
C 0.041617382 0.16371807 0.053179935
C 0.8639497 -1.0047773 0.43855575
O 1.2003812 0.28710774 0.8695954
C -1.2521498 0.36537352 0.77801025
O -2.2880344 0.6013468 0.20863633
H -0.7667429 1.1006942 -1.7857289
H 0.49608922 -1.6829728 1.2089927
H 1.5133734 -1.4221318 -0.3305724
H -1.1738164 0.27034557 1.8791974
