11

O 1.3372338 -0.64000535 1.2945758
C -0.75348 -0.5154906 -0.98774564
C 0.11556393 -0.84102213 1.0728387
C 0.62929 1.5064211 0.026241083
O -0.10505562 -1.5962768 -0.29530564
C -0.18277304 0.2818455 0.09514076
O 0.5110485 2.252244 -0.9237587
H -1.8468895 -0.594812 -1.0122433
H 1.2456613 1.7272463 0.91109085
H -0.6080945 -1.2349194 1.8049576
H -0.34250492 -0.345231 -1.9857918
