11

O 0.51567550 -0.45092039 -1.68506822
C -0.40422566 0.45171229 -1.15175316
C -0.26383978 -0.02610603 0.22459836
C 0.74883361 -1.00421260 -0.36151909
O 0.62928038 0.65247847 2.29706095
C -0.27866341 0.70563920 1.50080804
O -1.47351166 -0.19815831 -0.53282826
H -0.56341975 1.41377650 -1.62579607
H 0.50349591 -2.06635243 -0.29836528
H 1.76998417 -0.80095006 -0.03134764
H -1.18360924 1.32309329 1.66421064
