11

C 1.296955 0.6383159 0.5743834
C 0.10242159 -0.29105046 0.41177684
C -0.7479384 0.049305227 -0.7839497
O -0.54236835 0.9462313 -1.5580666
C -1.929575 -0.83298934 -0.9756471
N -2.844053 -1.5213362 -1.1147075
H 1.9453149 0.6020709 -0.3051007
H 1.8831441 0.34392658 1.4497249
H 0.9736949 1.6742138 0.7064885
H -0.55157393 -0.27069035 1.2940011
H 0.41397798 -1.3379973 0.3010967
