9

N -0.55904156 0.20458567 0.67625901
C 0.76660283 0.68927191 1.16429610
C 0.25699869 1.37519081 0.21859565
N -0.31340038 -0.66957905 -1.48782822
C -0.52866748 -0.86858746 -0.25412299
H -0.78342090 -1.82979442 0.20469666
H 1.44294446 0.44520264 1.96507713
H 0.14063383 2.18896586 -0.47150441
H -0.42264937 -1.53525624 -2.01546881
