9

N -0.4211312 0.063370995 0.7939406
C -0.837927 -0.40746224 -0.4799633
C 0.99216163 -0.23367685 1.1744665
N -0.57323796 0.23312475 -1.54183
C 0.794541 0.93524885 0.7063968
H -1.4556313 -1.309298 -0.41312563
H 1.5197818 -1.0354748 1.6612879
H -1.0294092 -0.19902678 -2.3448803
H 1.0108523 1.9531941 0.44370762
