11

C 0.32458452 0.63186941 -1.00875842
C 0.97282861 0.34504408 0.29320535
C -1.30352708 -0.19437798 0.92201397
O -0.13482642 -0.59137095 0.18741398
C 0.88925917 -0.10531227 -2.09352860
N 1.29522904 -0.60419608 -3.06110910
H -2.11440558 -0.82495643 0.55932525
H -1.52629028 0.85824268 0.72331229
H 0.82641786 1.07881052 1.08895345
H 1.90022659 -0.21701504 0.40153683
H -1.12949658 -0.37673772 1.98763450
