11

C -0.9893516 0.8939575 -0.11499354
C 0.059319105 -0.19369222 -0.17426774
C 0.67510337 -0.739172 1.0431942
O -0.31345278 -1.4641061 0.3322169
C 0.8390749 -0.24684569 -1.4083148
N 1.4484227 -0.25064665 -2.389771
H -1.7212472 0.76418245 -0.9172146
H -1.5107502 0.84728944 0.8452085
H -0.5277974 1.8797793 -0.22243893
H 1.6788955 -1.1576921 1.0037379
H 0.36178347 -0.3330537 2.0026426
