10

O 1.4209212 1.7051724 -0.25014263
C 0.5613576 0.7894657 -0.033963587
C -0.46477076 -0.9362767 -0.26660416
C -0.5058189 0.16070041 0.8385923
N 0.56302553 -0.11947617 -0.9668476
H -0.09001538 -1.9098715 0.06049268
H -0.16902773 -0.14359307 1.8317825
H -1.3874333 -1.0594707 -0.84162813
H 1.5086602 0.78605133 -1.2758663
H -1.4368985 0.72729814 0.90418494
