12

O -1.2594581 -0.28137526 -0.59552824
C 0.030541647 0.6408202 -0.86637485
C -0.46162844 -1.0662205 0.3608392
O 1.3324385 0.443582 1.1846116
C 0.828354 -0.27595824 0.10406799
O -0.46110886 1.724853 -0.3000504
H -1.4233564 0.81329644 -0.16812111
H -0.85896635 -0.9723576 1.3732861
H 0.8340575 1.2799469 1.1668103
H 0.25931242 0.6621898 -1.9341553
H -0.44681996 -2.1062002 0.033804394
H 1.626634 -0.86257654 -0.35918933
