12

O -0.7311193 -0.2887202 -1.3560151
C -0.8096634 0.85513943 -0.49959725
C 0.43947864 -0.78575766 -0.6892104
O 0.28899178 -0.009585184 1.588109
C 0.45561844 0.43630922 0.25427648
O 0.2484716 -2.002923 -0.08133681
H -0.009290902 -1.8244268 0.8351748
H -0.73684543 1.7953317 -1.0580014
H 1.2787467 -0.87488014 -1.3849088
H -0.015584092 0.72946095 2.1240757
H -1.7206128 0.8567545 0.11261009
H 1.3118087 1.113297 0.15482418
