13

C -1.7486403 1.0199606 0.33111835
C 0.019803615 -0.3802892 -0.6655714
N -0.41209507 0.46360332 0.30479914
O 2.0162072 -0.5412144 0.7871937
C 1.4816302 -0.7804463 -0.5049141
O -0.65599495 -0.7925488 -1.5914757
H -2.2638803 0.748375 1.2567828
H -2.2974334 0.6146697 -0.51924
H -1.715484 2.1108167 0.247169
H 0.27375302 0.7461733 0.99175173
H 1.657438 -1.2089951 1.3812759
H 1.5716019 -1.827544 -0.8197108
H 2.0730944 -0.17256112 -1.1991786
