10

N -0.79847574 -0.07876201 1.0678444
C 0.5811179 -0.4641564 0.879052
C 0.9280863 -0.30998126 -0.4710828
C -0.19958404 0.20159863 -1.1120353
C -1.1932755 0.36063892 -0.14588916
H 1.8880847 -0.5460026 -0.91038257
H 0.18157123 0.61146873 1.4587514
H 1.0706745 -1.0365616 1.6567938
H -2.174949 0.8013112 -0.26273116
H -0.28325048 0.46044624 -2.1603208
