11

N 0.36346087 0.31463644 0.8246488
C -0.40402696 -0.7611276 -1.1261334
C 0.37420946 -1.5598313 -0.3272028
C -0.33950394 0.4237434 -0.35343313
N -0.85584736 1.6325192 -0.6896125
N 0.95764774 -0.94189495 0.7874105
H -1.4418983 1.5912466 -1.5112705
H -1.1572869 2.2643144 0.03810227
H 0.98328567 1.0655023 1.1086564
H 0.91266483 -1.4125851 1.6873046
H 0.6072949 -2.6165233 -0.4384699
