11

N 1.0336366 -0.017885974 -1.5516032
C 0.27855405 -0.027416758 -0.37472287
C -0.37685558 0.96953577 0.32016304
C -0.87391937 0.31792265 1.470532
N -0.572164 -0.96728694 1.4942044
N 0.13508612 -1.1562014 0.35763294
H 1.029842 0.89752895 -1.982473
H 0.7324565 -0.7081252 -2.228814
H -0.48253343 2.0042398 0.03263339
H -1.4509745 0.7447972 2.2801874
H 0.5468714 -2.0571082 0.18226011
