11

N -0.089851856 1.9249114 -0.4360174
C -0.6832912 -1.3850886 0.5413958
C -0.18928805 0.58890194 -0.10123774
C -1.1324562 -0.058472373 0.6999367
N 0.47076547 -1.5567305 -0.32928067
N 0.71434724 -0.29731292 -0.64510405
H 1.5356199 -0.09267264 -1.196447
H 0.83747816 2.3247702 -0.40676403
H -0.75516474 2.4689791 0.09365024
H 0.4786889 -1.6027011 0.9850786
H -1.1868479 -2.3145845 0.79478973
