12

N -0.08146969 -0.45711452 1.31226183
C -0.97202746 -0.99464898 0.44545050
C 0.51195654 0.76289063 0.71508530
C 1.04272700 0.56831134 -1.80202880
N 1.78302400 0.61337481 -2.69821047
C 0.13403851 0.56267600 -0.74080254
N -0.85402093 -0.44346583 -0.72935920
H 0.05892270 1.66594088 1.16244014
H 1.59071586 0.79382096 0.89551878
H -0.23382173 -0.52478351 2.30754490
H -1.30554209 -0.77115439 -1.57048133
H -1.67450297 -1.77584715 0.70258105
