12

N -0.2527656 -0.80129397 -0.8671886
C -0.21404082 0.7795699 0.83779824
C 0.35544306 1.4045471 -1.5995227
C 0.03451984 -1.441585 0.23071882
N 0.8570503 2.0975847 -2.3877492
C -0.29516223 0.5938564 -0.66601264
N 0.24128775 -0.570535 1.2465521
H -0.30791688 -1.2199719 -1.7839245
H 0.5054214 1.5405204 1.154915
H 0.1602644 -0.87605256 2.204922
H -1.1901788 1.0097829 1.3015033
H 0.10607743 -2.516423 0.32798827
