10

C 0.73970526 0.00837593 1.16214263
C 0.22838125 0.91215779 0.07914606
N 0.35122849 0.12165260 -1.18458334
C -0.95338011 0.23950856 -0.52548288
N 0.47409624 -1.19652443 0.85392286
C -0.20755658 -1.03278354 -0.43198633
H 1.25961121 0.30006085 2.06834058
H 0.41080265 1.97724847 0.00336210
H -1.85162704 0.58973405 -1.01743642
H -0.45126145 -1.91943021 -1.00742507
