10

C 0.76832914 -0.8529657 -0.61035407
C 0.6738923 0.40258572 0.8464174
N 0.07840709 1.5887024 0.46999684
C -0.88038915 0.94208527 -0.1380718
N 1.6541275 -0.13375565 0.012665201
C -0.60430336 -0.4861604 -0.24674161
H 1.0321143 -1.6359209 -1.3218207
H -1.7817676 1.4304947 -0.50784403
H -1.4169706 -1.2078741 -0.32715312
H 0.47656035 -0.0471912 1.8229059
