10

C 0.55874765 0.6225132 -0.43672907
C -0.6170637 0.8083575 0.45631215
N -0.82131416 0.26819348 -0.8915794
C 1.1962081 -0.68105775 -0.05528126
N 0.2997926 -1.4628178 0.3948553
C -0.9017513 -0.6320516 0.28929082
H -1.8660349 -1.084807 0.49382395
H -1.138041 1.6722271 0.8485311
H 2.243882 -0.94851273 -0.14144531
H 1.0455747 1.4379555 -0.9577782
