11

O 1.74556631 -0.35214345 0.60469312
C 0.39420513 -0.03646341 0.69586983
C -0.15264223 1.28141243 0.09972364
O -1.15527423 0.53142549 -0.64150651
C -0.57570142 -0.66432156 -0.27821320
N -0.74805814 -1.83305250 -0.70127878
H 0.54592719 1.77917307 -0.57949576
H 1.93522334 -0.66067716 -0.28959503
H 0.09024461 -0.17890736 1.73684651
H -0.61907793 1.99286819 0.78323699
H -1.46041280 -1.85931351 -1.43028103
