11

N -0.27023017 0.77983266 0.8647762
C -0.18708327 -0.2622383 1.8010246
C 1.1136404 -0.1182898 -1.2502242
O -0.35790217 -0.36263612 2.9710054
C 0.28807902 -0.15546387 -0.099224135
O 0.20010436 -1.202972 0.8772984
N -0.42973927 -0.34581876 -1.3780082
H -1.120476 0.37417716 -1.5846796
H 1.3353236 0.89011836 -1.6109843
H 0.14111987 1.682358 1.0583737
H -0.7128364 -1.2790672 -1.6493574
