11

N -0.88561775 0.49487319 0.63228385
C 0.17194040 -0.29494908 0.02110716
C -1.78741701 -0.39004719 0.02149717
O -2.96057548 -0.56342700 0.06336044
C 1.50867641 -0.66931523 0.30522239
O -0.81658099 -1.05935254 -0.68396156
N 1.19314703 0.41359645 -0.78007135
H 1.94275278 -0.16069923 1.17070826
H -0.93309322 0.67731509 1.62510905
H 1.21639200 1.42206083 -0.63625316
H 1.35037591 0.12994490 -1.73900195
