11

N -0.78169024 -0.42542762 1.3701639
C -0.14571792 0.80650795 -1.4290892
C 0.10729908 -0.002649068 0.3670173
O 0.00702867 1.3720431 -0.19518887
C 1.4332836 -0.103122465 1.0466279
O -0.17391579 1.3105464 -2.5061164
N -0.25977188 -0.5011298 -0.94920605
H -0.70309216 0.12080434 2.2202103
H 2.0936792 -0.73776436 0.42253587
H -1.7355736 -0.5389332 1.0523583
H 0.15847118 -1.3008751 -1.3993129
