12

N 1.29586038 1.35635551 2.20383731
C -1.08749081 -0.50716250 0.34584797
C 0.46488640 -0.44319367 0.47157032
C 0.92159628 0.55859497 1.45665625
N 0.83293045 -0.05998066 -0.89255808
C -0.32573680 0.45852293 -1.46725945
N -1.42495871 0.24249832 -0.86570908
H -1.59251923 -0.08121864 1.21566201
H 1.69162275 0.45905726 -1.01845529
H 0.89641707 -1.41203374 0.73534174
H -0.25458083 0.97422650 -2.42071292
H -1.41802719 -1.54566621 0.23577935
