11

N -1.7150011 -1.4897152 0.0065095746
C -0.060902566 0.40492246 0.022438727
C -1.1785395 -0.37396628 0.03373796
N 0.8768472 -1.7798781 -0.1154862
N 0.09720777 1.807463 0.07500036
C 1.0624436 -0.5152508 -0.062665105
H 1.7462375 -2.297905 -0.17214185
H -2.3679087 -0.27049762 0.09635559
H 2.0394857 -0.01924123 -0.077013396
H -0.25896913 2.2999618 -0.7327401
H -0.24090058 2.2341073 0.92600447
