11

N 1.24496200 1.42152472 -0.97328767
C 0.05902891 0.97924944 -0.85211724
C 0.56074038 -0.51019325 0.98962689
N 1.22361849 -0.77875997 1.98413234
N -1.60230137 -0.67065124 -0.05699664
C -0.29482694 -0.11804600 0.06107412
H -1.66388222 -1.38604953 -0.77086964
H -0.81566981 1.35937624 -1.39738892
H 1.26223635 2.18961278 -1.64096105
H 1.97509991 -1.44912652 1.83730602
H -1.94900568 -1.03693660 0.81948187
