13

C -1.0629534 -0.930124 -0.92191154
N 0.60578036 0.3071306 0.053221118
C 0.8369044 1.5082065 0.84930253
O -1.2955992 -0.21404494 1.4053063
C -0.707725 -0.44040948 0.383147
O -0.07160505 -1.7152206 -1.579978
H 1.3995076 -0.3221061 -0.0035556897
H -0.17608233 -2.6251037 -1.283237
H 1.841889 1.8891829 0.6495431
H 0.7135463 1.2980418 1.9142808
H -2.0846684 -1.2952442 -1.0388281
H 0.102643445 2.2640493 0.5568141
H -0.10163766 0.27564198 -0.98410475
