11

C -0.73174787 -0.16929772 -2.3151433
C -0.16352467 -0.11917274 -0.9692172
C 0.3209638 -0.08937424 0.1323458
C 0.97817147 -0.10100453 1.4393396
O 2.08609 -0.56611747 1.6119366
N 0.24511929 0.47005007 2.437782
H 0.008060914 0.15356706 -3.05364
H -1.6064891 0.48012334 -2.3975158
H -1.0328718 -1.1904976 -2.560217
H 0.613393 0.40063894 3.374524
H -0.71716505 0.7310849 2.2998044
