11

C 1.1969718 -0.95883006 -1.3698509
C -0.10778819 0.20287047 -0.39878336
N 1.2772211 -1.4587408 -0.29467288
C 0.43390715 0.76267886 0.89157677
N -1.3394988 -0.37732637 -0.35379168
H -1.6763602 -0.73238075 -1.2400628
H 1.4843125 1.0350348 0.77394474
H -0.0024428112 0.8782255 -1.2416589
H 0.35072133 0.041157003 1.7076168
H -1.468001 -1.0520471 0.38940254
H -0.14904265 1.6593586 1.1362797
