11

C -0.06078306 0.027539238 -0.43860558
C 2.5572438 0.13338356 -0.587246
N 1.3861066 0.056446046 -0.5376711
C -0.48213324 -1.0354755 0.5692239
N -0.6103481 1.3127031 -0.08935531
H -0.11051334 -0.78149635 1.5682756
H -1.5739013 -1.0878835 0.6015949
H -0.4295084 -0.23603557 -1.4344864
H -0.2638877 1.6053094 0.81983125
H -0.080724925 -2.0136812 0.29055738
H -0.33155012 2.0191905 -0.76211846
