10

C 0.59826356 1.3866805 -0.58303237
O -0.40348452 0.3862053 -0.38697395
C -0.032153647 -0.6224355 0.43078586
O 1.0474355 -0.71531624 0.96542877
N -1.0633537 -1.5052618 0.5796881
H 0.8565378 1.8654562 0.3652001
H 0.15232754 2.1129782 -1.2644973
H 1.4977227 0.95186883 -1.0255729
H -1.8321235 -1.4675406 -0.06899916
H -0.8211719 -2.3926346 0.9879729
