10

C -0.8206056 0.57740295 0.025388476
O -0.9976486 0.060221277 -1.2829831
C 0.4491526 0.09525042 0.7222294
O 0.8560362 0.62235224 1.7378538
N 1.036878 -0.96015877 0.103329726
H -1.6698154 0.22147389 0.61639
H -0.82747144 1.6731861 0.05901256
H -0.39932898 0.53224736 -1.8754778
H 1.811199 -1.416038 0.5595273
H 0.56160456 -1.4059374 -0.66527045
