10

O -0.05397273 1.9682966 0.98446435
C -0.010896035 1.4717926 -0.110394016
O 0.50252926 -0.55770266 -1.3398862
C 0.092103235 -1.0239887 0.627012
C -0.40072817 0.033928968 -0.36755714
C 0.98454475 -1.4909319 -0.52079934
H 0.33112234 2.0330603 -1.0072005
H -1.435653 -0.041410822 -0.7167457
H -0.6334137 -1.7715238 0.95798045
H 0.624364 -0.62152046 1.4931259
