12

O -1.2304168 1.4264753 -0.28601623
C 0.42760402 -0.22167654 0.72309077
C -0.09981432 1.1025503 -0.778125
O -0.68901426 0.03885413 1.5241505
C 0.23379806 -1.0358896 -0.5565217
O 0.13398783 -0.0066791987 -1.5340377
H 0.15790462 -0.9386289 1.6782817
H 1.405917 0.19764861 0.94718045
H 1.0914662 -1.6725705 -0.7960178
H 0.57984537 1.9249423 -1.0193882
H -0.67950344 -1.636168 -0.48320258
H -1.3317742 0.8211421 0.580606
