11

N -0.21385767 1.3475559 -1.4019594
C 0.87237513 0.6007191 0.39655444
C -0.1298347 -0.33865836 0.11392654
N 0.8180457 1.6323206 -0.6228313
N -0.4786976 -1.4657935 0.84673744
C -0.74843836 0.17793837 -1.0240166
H 0.43185684 1.8062103 0.5589397
H 0.28443417 -1.8900737 1.3537827
H 1.7450976 0.5239 1.0328122
H -0.9947738 -2.1538305 0.3158256
H -1.5862074 -0.24028823 -1.5697713
