11

N -0.7304858 -0.7580655 1.5609626
C -0.19367635 -0.13321394 0.42156357
C -0.12852268 -0.612306 -0.86981165
N 0.4037622 0.39445907 -1.6188648
N 0.69214946 1.4829681 -0.90781665
C 0.33289525 1.1782576 0.33180898
H -0.21901128 -0.5300797 2.402866
H -0.7763079 -1.7638855 1.4633697
H -0.4167192 -1.559642 -1.3002836
H 0.583211 0.39592624 -2.6083708
H 0.45270535 1.9055812 1.1245762
