10

O -0.7483798 -0.99408543 -1.0518208
C 0.21059927 1.1608865 -0.9462176
C 0.06908922 -0.32587916 1.0107412
O -0.26886073 -1.8697346 1.2167734
C 0.5555835 2.2127616 -1.4134072
C -0.17969555 -0.119201876 -0.37713063
H -0.59133726 -2.06063 0.27704626
H -0.90327036 -1.07749 1.6150707
H 0.85839266 3.146679 -1.8366464
H 0.99787915 -0.073306024 1.5055912
