11

N 1.3686283 -0.6650312 2.5925162
C 0.66062576 -0.6739643 1.6810995
C -0.24315327 -0.6529218 0.516306
C -0.5323899 0.74161196 -0.07479415
C 0.24272531 0.22028962 -1.2917489
O 0.40265024 -1.0770035 -0.6852022
H -1.1202908 -1.2664021 0.7511773
H -1.5927417 0.93194425 -0.24458744
H -0.08258423 1.5791491 0.45903304
H -0.31496647 0.16243671 -2.2303813
H 1.2114964 0.6998917 -1.4734179
