10

N -0.22072701 0.40457532 1.8566566
C 0.07398962 -0.0947889 -0.29052615
N -1.3864706 0.063629456 1.366235
N -1.2314172 -0.2614966 -0.037160438
N 0.5937092 -0.23104768 -1.5585924
C 0.7047765 0.25701267 0.9077096
H 1.5661066 -0.4954619 -1.5999591
H -1.8633803 0.70435375 0.43168744
H 1.7558786 0.41546166 1.1089481
H 0.007534562 -0.7622377 -2.1849983
