11

N -0.13802353 -0.4502668 2.2748082
C 0.41213623 0.2623917 -1.0059437
N 0.6827607 0.845654 -2.1521857
N -1.162963 -0.77270263 0.12819432
C -0.25773033 -0.30700657 0.9218483
N -0.6504218 -0.490578 -1.1378353
O 0.7840115 0.35754102 0.2930026
H 1.6448832 1.010093 -2.426908
H -0.9569386 -0.8826722 2.6780334
H 0.139187 0.39280462 2.7598548
H -0.49690112 0.034741886 -2.332869
