11

O -1.1339445 0.93036294 -0.05262506
C 0.22524337 0.8665012 -0.20083717
C -1.2186805 -0.5150768 0.11587661
N 1.0993369 1.7589598 -0.27938974
C 0.27656308 -0.647057 -0.20023373
O 1.0258635 -1.2650698 0.80612403
H -1.9224249 -0.953624 -0.5937926
H 1.9518737 -1.0304083 0.67028236
H 0.4798946 -1.0563313 -1.1994505
H -1.4653112 -0.77652705 1.1465981
H 0.681586 2.6882703 -0.2125522
