11

O -0.08239683 0.22604744 -1.666888
C -0.66608053 0.23997003 -0.53908175
C 0.6893514 -0.4686217 0.63277334
N -1.702631 -0.49673432 -0.1603496
C 0.062011123 0.87223244 0.64507616
O 1.7295856 -0.7467398 -0.10757696
H 1.5607343 -0.29625642 -0.97673005
H -2.1434767 -0.82835126 -1.0363177
H 0.72902286 1.6912112 0.36474153
H -0.54145855 1.0555199 1.5290352
H 0.3653383 -1.2482775 1.3153179
