10

C -0.0071788053 0.9076904 0.91974115
C -0.794103 -0.22804908 0.97638595
N -0.81329197 -1.1937199 0.032649033
C -0.022600232 -1.0200377 -0.99818254
N 0.7688545 0.060829032 -1.1275989
C 0.8296367 1.0722632 -0.19921009
H -0.030292206 1.6475806 1.7126056
H 1.5221317 0.9273981 -1.3550028
H -1.4588183 -0.4022523 1.8218935
H 0.005661695 -1.7717025 -1.7832806
