11

O 1.07416378 -2.11135758 -0.18612776
C -0.60954665 0.90901256 0.52865315
C -0.20579678 1.03969603 -0.91281156
C 0.49637555 -0.89573329 -0.20782079
C -0.17455037 -0.28019873 0.95606777
N 0.49666871 -0.18308495 -1.26677454
H 0.44744219 1.90771959 -1.07325811
H -1.07205767 1.17315773 -1.57172469
H 0.97021933 -2.49006335 0.69487029
H -0.27182563 -0.72402361 1.93943303
H -1.15109209 1.65487546 1.09949325
