12

O -1.8249389 -0.22075462 0.14661929
C -0.6031764 0.3048972 0.559376
C 0.42053193 0.63873863 -0.5418682
O -0.024537912 0.06796106 -1.7420424
C 0.48817056 -0.6576122 1.0567925
O 1.4315404 -0.114305705 0.115991265
H 0.26454946 -1.711277 0.8525555
H -0.7940466 1.1386648 1.2378742
H 0.83669066 -0.53586614 2.0863745
H -1.677152 -0.5789247 -0.7435083
H 0.7359894 -0.0076846946 -2.330594
H 0.74637944 1.6761633 -0.69757044
