12

O -0.66388613 -1.4501113 0.8786149
C -0.06047901 -0.22350837 1.1997925
C 0.44407585 0.45308653 -0.073838584
O 1.3280773 -0.42394271 -0.71996486
C -0.7098219 0.7756293 -0.997333
O -0.7235412 0.3775445 -2.137442
H -0.029736405 -1.9083376 0.30705574
H 0.7849025 -0.34579515 1.890861
H -0.81829923 0.39802325 1.6907884
H 0.9389258 1.4035165 0.1887316
H 1.0306435 -0.46296117 -1.6438793
H -1.5208611 1.4068561 -0.5833863
