11

O -1.5033895 -1.0431007 0.381199
C -0.16709614 -0.77111816 0.06837317
C 0.028353898 0.23419967 -1.0941236
N 0.76295936 1.0772097 -0.14788471
C 0.5038338 0.30377755 0.9482223
O 0.68125045 0.44102383 2.1336503
H -1.564021 -1.1264523 1.3427565
H 0.43823487 -1.6810971 -0.038430765
H 0.63075286 -0.114530735 -1.9371823
H -0.9188944 0.65713793 -1.4368083
H 1.108016 2.02295 -0.2197717
