12

N -0.25848097 1.1184887 2.0356262
C 0.198635 -1.0437263 -1.914144
N -1.0907987 -0.45841426 0.218588
C 1.0023292 -0.21706876 -1.3025143
C -0.79258263 0.7328859 0.8715035
C 0.09743709 -1.026356 -0.4441342
N -1.3142942 1.0813173 -0.21687472
H 1.7478956 0.56395817 -1.3565601
H 0.46259186 -1.8667184 0.1555753
H 0.2314259 0.4453549 2.6004338
H -0.20708464 -1.4270097 -2.8340333
H -0.077073656 2.0972886 2.186534
