12

N -1.5234091 -1.1025288 -1.3426125
C -0.61933166 -0.4538095 -0.5515465
N -0.6901467 -0.6987495 0.7662849
C 0.22168669 -0.08847828 1.5153491
C 1.1938475 0.7571933 0.99567366
C 1.1548328 0.93859845 -0.3816619
N 0.2623176 0.3512968 -1.1712111
H -1.6443588 -0.7517946 -2.2781103
H -2.3224714 -1.5052849 -0.88149625
H 0.16584523 -0.28312963 2.5844846
H 1.9301971 1.244557 1.6216667
H 1.8709904 1.5921296 -0.8768205
