10

O 1.94382930 -0.85250751 0.10542921
C -0.46013060 -0.26553540 0.74967708
C 0.77047002 -0.25425972 -0.09972885
C -0.93484577 0.63345202 -0.42420674
N 0.39609450 0.48480436 -1.07797950
H 2.52202286 -0.63082533 -0.63973717
H -0.37098355 0.22031572 1.72468567
H -1.74802932 0.22431446 -1.03019002
H -0.96158411 -1.23086490 0.85205656
H -1.15684325 1.67110615 -0.16000629
