10

O -1.8464415 1.2043947 0.37403944
C 0.64462906 -0.8598349 0.09090619
C 0.58873814 0.5448488 -0.58309776
C -0.7581939 0.5977119 0.10914054
N -0.6923512 -0.5780648 0.6703879
H 1.4268826 -0.9824393 0.84575176
H 1.3219271 1.2734742 -0.22964162
H 0.5408367 0.5474514 -1.6737627
H -1.8756578 -0.03706976 0.9930774
H 0.6496306 -1.7104722 -0.59680134
