11

O 2.079213 0.91141015 0.016431516
C 0.8611065 0.36099884 0.033140406
N -0.061117955 0.8282947 0.9674447
C -1.3840388 -0.08662387 0.82839435
O -1.6718451 -1.6572018 -0.9588801
C -0.93000597 -0.75946236 -0.28243884
N 0.38520673 -0.5490529 -0.7268866
H 2.588372 0.4625302 -0.6733601
H 0.214728 1.2079837 1.8645532
H -1.108371 -2.0427747 -1.6406286
H -0.97324747 1.3238984 0.5722301
