11

O -1.5706848 0.06021141 1.8026648
C -0.6991507 0.015423796 0.7834764
N 0.39942008 0.7114597 0.6640886
C 0.92069316 0.29993683 -0.5418118
O 2.0793593 0.8177303 -0.99739194
C 0.14115046 -0.63839763 -1.1463792
N -0.92590654 -0.8117645 -0.25104696
H -1.2207569 0.70423216 2.432089
H 2.367603 1.4503032 -0.32644647
H 0.22270949 -1.1817237 -2.0722666
H -1.7144368 -1.4274119 -0.34697634
