11

O -2.44619094 -0.74433830 0.51630618
C -0.70610585 0.74064091 1.28697860
N 0.69902784 0.85561853 0.61493021
C 0.70824229 -0.08891676 -0.51152529
O 1.83980656 -0.14272053 -1.21430079
C -1.20635497 -0.19963846 0.45406674
N -0.37545768 -0.70635901 -0.62453761
H 1.42795297 0.63888079 1.29675583
H 0.85852159 1.81741935 0.30966875
H 1.71961151 -0.79462091 -1.91898752
H -2.51905356 -1.37596596 -0.20935561
