11

O -1.8029476 -1.2014033 -1.4527462
C 0.73968965 -0.069406584 0.46820232
N 0.057255466 1.223513 0.31400654
C -1.0091321 -0.36283934 -0.7425122
O 1.850436 -0.05488811 1.2052625
C -1.2050194 0.963575 -0.56824285
N 0.14634582 -0.9957733 -0.13029593
H 0.65447617 1.9208503 -0.13402443
H 2.2004068 -0.95648867 1.2305846
H -1.4072996 -2.0800843 -1.4055247
H -0.22421084 1.6129456 1.2152902
