11

C -0.9370127 1.3023988 0.29542655
N -0.087308414 0.1602792 0.027675906
C -0.38031998 -1.1503328 0.0089844195
N 0.69603485 -1.8573229 -0.2768754
C 1.6392741 -0.89476234 -0.42437536
N 1.2178934 0.34029883 -0.25091088
H -0.57751036 1.8253467 1.1834993
H -0.9161339 1.9798108 -0.560583
H -1.9572119 0.9494387 0.46240184
H -1.3693372 -1.5425125 0.20368102
H 2.6716318 -1.1126428 -0.6689244
