11

C 1.040321 1.2344867 -1.2777671
N 0.5481711 1.2971936 -0.04206598
C -0.0193024 -0.6783198 -0.874677
N 0.6945325 -0.06280652 -1.8284466
C -0.47738698 -0.2290028 1.5474551
N -0.033232186 0.09697814 0.2012089
H 0.39565814 -0.38670614 2.1832857
H -0.45323032 -1.6684185 -0.9117136
H -1.0603968 0.6103131 1.9245671
H 0.4533324 0.9186884 -2.43498
H -1.0884666 -1.1324065 1.5131335
