11

C 1.6820989 -0.7597058 -0.0008835674
N -1.6631582 0.6326915 0.5615469
C -0.3123044 0.2030286 0.70482504
N 0.34109297 -0.2685965 -0.26589456
C -2.0465946 0.6894594 -0.7872363
N -1.7786722 1.8621039 -0.48984343
H 1.7338755 -1.8152027 -0.28872344
H 1.9918679 -0.66036105 1.0486386
H -2.3853633 0.040161557 -1.5833986
H 0.049386557 0.28866145 1.7348595
H 2.3877704 -0.21224055 -0.6338902
