12

N -0.74260646 -1.021623 -1.0302495
C -0.23382618 -0.63418865 0.2801569
C 0.56775165 0.6661641 0.08580129
O -0.1726527 1.5743419 -0.6788402
C 0.8891383 1.259473 1.3959974
N 1.153803 1.6817715 2.438189
H -0.041617665 -1.5291371 -1.563057
H -1.557771 -1.6145962 -0.951218
H -1.0908799 -0.4125255 0.9287106
H 0.3856744 -1.3926185 0.77636623
H 1.5269458 0.42424297 -0.40341958
H -0.6839589 0.9986955 -1.2784371
