11

N -1.6027666 -0.63620764 -0.6480981
C 1.55336 -0.30090272 0.46770895
C -0.76535153 -1.2099069 0.11685691
N 0.25652704 1.8838736 -0.10231636
C 0.70399606 0.6647785 0.25164336
N 0.089854404 -0.4424941 0.91917354
H -0.6762072 -2.2863224 0.29768014
H 0.8693063 2.4347484 -0.6856654
H 2.482236 -0.62703234 0.8991158
H -2.2074225 -1.3314624 -1.085434
H -0.7035317 1.850928 -0.4306648
