11

C -1.32129929 -0.21631615 -0.20191084
N -0.20610861 0.71600257 0.18201755
C 1.09392626 0.12060855 0.61626849
C -0.93674123 -0.92817029 -1.35102319
N -0.60502551 -1.43441431 -2.34980832
H -0.03908147 1.32438156 -0.62121381
H -1.59547170 -0.81085481 0.66149750
H 1.46176702 -0.49841850 -0.20333768
H -0.56332642 1.32763579 0.91617994
H 1.81494237 0.90556339 0.86367071
H 0.89641902 -0.50601768 1.48765999
