11

C -1.1052309 0.66546863 0.41110668
N -2.4245863 -1.0213454 -1.0116493
C 1.1437752 -0.52942693 0.04993314
C -1.8385623 -0.2828276 -0.32240522
N 0.3032269 0.69523484 -0.11389815
H 1.2127342 -0.74319786 1.1178935
H 0.6310795 -1.3496345 -0.4547036
H -1.0772073 0.5242182 1.4850637
H 0.77080446 1.4906175 0.3213395
H 0.24407841 0.92502576 -1.1073272
H 2.1398885 -0.37413272 -0.37535286
