11

C -1.1447515 -0.3125642 0.7063825
N -0.0583158 0.65846604 0.63832057
C 1.103249 0.18399262 -0.08194227
C 0.8319023 -0.17038168 -1.4971176
N 0.5543138 -0.41757777 -2.5899856
H -1.5153359 -0.63815403 -0.2774763
H -1.9757134 0.1263059 1.2662493
H -0.80145955 -1.1962081 1.2554748
H -0.3857249 1.5198238 0.21771818
H 1.8867962 0.9481858 -0.06133705
H 1.5050402 -0.70188826 0.4237138
