17

C -1.0372865 1.5448011 -1.0377475
N -0.45719355 0.001545734 1.3232679
C -0.23462653 -0.8853408 2.445129
O 1.1127452 -1.052272 0.0290487
N -0.101969704 0.45030293 -0.9615606
C 1.4589528 -0.595406 -1.8566833
C 0.1716998 -0.19969553 0.13095382
H -2.0889835 1.2204393 -0.9773462
H -0.5505149 -0.38384455 3.3614042
H -1.353071 0.4565271 1.2706887
H 0.8325626 -1.1068027 2.5064487
H -0.9153084 2.0495024 -2.003115
H -0.8618372 2.2985258 -0.25549018
H -0.77976865 -1.8326526 2.3469913
H 2.4167237 -1.0213914 -1.5662925
H 0.7993615 -1.2877201 -2.3659213
H 1.5885146 0.3434816 -2.3897765
