17

C -1.5301452 2.2388752 0.13799638
N -0.66283804 1.1776736 -0.33992344
C -0.11110408 0.31819797 0.59377587
O -0.22862163 0.5215605 1.7939492
N 0.6042461 -0.74027294 0.081144854
C 1.0465386 -1.7858516 0.9811877
C 0.83026296 -0.9382587 -1.3357705
H -2.4651575 1.8615304 0.57240266
H -1.0102648 2.807363 0.91217154
H -1.7627543 2.9077003 -0.69414735
H -0.9300576 0.77269024 -1.225345
H 0.5281469 -2.7338543 0.77893037
H 0.8288972 -1.4731958 2.0019002
H 2.1257071 -1.954926 0.87812954
H 0.9952535 0.022581792 -1.8333794
H 1.7375075 -1.536314 -1.4681225
H 0.0043831426 -1.4655 -1.8348999
