17

C -0.073609285 0.15450889 -0.00043121987
N -0.40141177 -1.1852186 0.010869029
C -1.6508852 -1.59517 -0.60066754
O 1.1706132 0.4781236 0.42468202
N -0.90598935 1.0486331 -0.35681307
C -0.47213554 2.421534 -0.25928882
C 2.0691519 -0.51854944 0.8752755
H 2.9510803 0.024439255 1.2169162
H 0.43411633 2.6188784 -0.8476364
H 0.3531396 -1.8353491 -0.13718684
H -1.8117107 -2.6566324 -0.39430097
H -1.6726022 -1.4248968 -1.6836882
H -0.2641515 2.723516 0.7767622
H 1.6463709 -1.0945467 1.7063742
H -1.2729981 3.0602891 -0.64247686
H 2.3640132 -1.1989688 0.06555378
H -2.4629917 -1.0205905 -0.15394287
