10

O 1.7147727 -0.2403928 0.9636727
C -1.1636568 -0.17115223 -0.8387005
N -0.2776676 0.72967124 -1.5460037
C 0.55482966 0.39087975 0.5176175
C -0.6891157 -0.42636114 0.37781247
N 0.70423883 1.0137919 -0.82219285
H -2.0479014 -0.5278036 -1.3491766
H 0.38392425 1.2322482 1.2029585
H -1.1071392 -1.0525066 1.153802
H 1.9277154 -0.94837475 0.34021014
