10

O -1.6319178 1.6813487 0.5484649
C -0.80598456 0.8735655 0.10242008
N -0.6094991 -0.46804535 0.63208246
C 1.1906228 0.018345742 -0.5183319
C 0.58742857 -0.9454318 0.2830297
N 0.4147564 1.1121495 -0.63743395
H -1.2956134 -0.8912031 1.2361245
H 2.11504 -0.0800175 -1.070403
H -0.89056826 0.6414746 -1.1087898
H 0.9257348 -1.9421861 0.53283685
