11

O -0.3951922 1.2606107 -1.3132862
C -0.28309074 -0.06372727 0.7236097
C -1.0205293 0.26725948 -0.55106896
O 1.0616996 -0.5564021 0.6147936
C 1.6081957 -0.5135601 -0.5809039
N -0.77612525 0.0114934705 1.8699766
H 2.612174 -0.95156884 -0.41011107
H 0.4630552 0.8806945 -1.578795
H -0.11435918 -0.29636267 2.5830185
H -1.1541343 -0.67126966 -1.1121342
H -2.0016935 0.6328324 -0.24509911
