11

O -1.1928006 -0.25983998 0.82449466
C 0.10570094 0.11065239 0.74124384
C -1.5096476 -0.9028989 -0.3847032
O 1.5676262 0.42122415 -1.1792705
C 0.3137445 0.44603825 -0.70255655
N 1.0279982 0.09744278 1.6012523
H 0.69828254 -0.20823012 2.515838
H -0.2388835 1.3319623 -1.0256666
H -2.4376175 -0.39512998 -0.7210921
H 2.1163633 -0.08899936 -0.5581122
H -0.4507665 -0.5522213 -1.1114279
