11

N -0.7791643 2.6479619 0.22647364
C -0.48322198 1.4443816 0.09786524
C -1.0836451 0.18711898 -0.37470573
C 0.7584503 -1.6900098 -0.041517213
C 0.082685485 -0.37888235 -0.047643468
O 0.7358924 0.77268356 0.42118517
H -0.007822405 3.188993 0.61999464
H -2.0317712 -0.111697495 -0.7926783
H 1.0341444 -1.9625539 0.98207736
H 0.098461255 -2.456173 -0.45355713
H 1.6759908 -1.6418222 -0.6374942
