9

N 0.45831961 -0.04596032 -1.73167859
C -0.46232152 0.07022758 -0.77667572
N 0.09086490 -0.01433971 0.46907180
C -0.71773332 0.08132051 1.59469966
O -0.29322670 0.01822966 2.72039156
H 1.45586350 -0.18406720 -1.58124728
H 0.15787662 -0.00262034 -2.69192461
H 1.08493856 -0.14237883 0.67662716
H -1.77458148 0.21958865 1.32073592
