9

N -0.42715716 0.28556046 0.22341107
C -1.6249019 -0.0029909979 -0.41124618
N 1.808814 0.21992424 0.5154077
C 0.7799497 -0.08816422 -0.30579805
O -2.7060285 0.3190222 0.015350712
H -1.4620814 -0.5595902 -1.3503115
H -0.4790721 0.83557874 1.0798118
H 1.4352647 -1.0165021 0.22509614
H 2.6752126 0.0071619223 0.008278331
