12

N 0.015199516 -1.2754376 0.24340656
C -1.4366858 0.79310924 0.720383
C -0.20928758 0.047531243 0.48662645
C 1.1325696 -1.3025 -0.60579085
N -1.7437685 1.3865411 -0.34708044
C 0.8017637 0.79547846 -0.19154406
N 1.6410061 -0.15524752 -0.8456024
H 1.5137502 -2.2472377 -0.97437376
H -1.9821271 0.8579465 1.6683459
H 1.307011 1.6259664 0.296917
H -0.35010663 1.4718897 -0.7289064
H -0.6893241 -1.9980401 0.27761903
