12

N 0.72244234 -1.67777614 -0.86612639
C -1.12961778 -0.35071523 0.01074075
C -0.75719440 1.75878378 0.73291873
C 1.03342716 0.58693752 0.00797538
N 0.55438430 1.71727759 0.50629105
C 0.22360682 -0.51856038 -0.27889931
N -1.62581774 0.77442524 0.51221554
H -1.15576107 2.68397809 1.13949870
H 2.10616290 0.54640725 -0.17860924
H 1.70273269 -1.85493436 -0.69576932
H 0.16010885 -2.50482073 -0.71573474
H -1.83447428 -1.16100242 -0.17450129
