11

N 1.996556 0.82628435 -1.798355
C -0.23308662 -0.19441584 -0.83164
C -0.9591226 0.560963 0.26840195
C 0.06541684 -0.034609202 1.2063857
C 1.0508245 0.32529688 -1.3571908
O 0.041671038 -1.2321061 0.23445083
H 1.1168085 0.28686997 1.1622182
H -1.0501798 1.6470588 0.1830493
H -0.78462744 -0.64594144 -1.6585951
H -0.20501946 -0.3492859 2.213147
H -1.0392412 -1.1901147 0.37812752
