11

N 2.04768580 -0.78458454 1.88848581
C -1.62906913 -0.09777979 -0.36429758
C -0.55358475 0.88947839 0.13014375
C 1.42867932 -0.44164036 0.97435043
C 0.62837936 -0.01784819 -0.18274156
O -0.08087627 -1.15267583 -0.76581367
H -0.63440327 1.09685315 1.20404025
H -0.20653196 -1.83966661 -0.09410987
H -1.81734473 0.15056489 -1.42193427
H -0.48256584 1.83979269 -0.40989710
H 1.29963130 0.35750650 -0.95822599
