11

N -2.2918046 1.1402903 -1.3499402
C 0.52562505 -0.74662346 1.400861
C -1.2430644 0.83068746 -0.9748225
C 0.083355494 0.43679583 -0.48045284
C 0.23203161 -1.0263007 -0.08621705
O 0.3653338 1.0674223 0.80548996
H -0.7005829 -1.5842847 -0.2334368
H 0.8423439 0.80190116 -1.1757809
H -0.4665522 1.2842336 1.2525808
H 1.6225734 -0.689325 1.4964609
H 1.0307405 -1.5147967 -0.6547422
