17

C -1.075622 -2.3320765 1.5011032
N -1.0453207 -1.0122579 0.34896398
C 0.587561 0.13077413 -1.5915858
O -0.513824 0.66215295 1.8120964
N 0.35622784 0.7534692 -0.29587823
C 0.9014948 2.0832288 -0.09095499
C -0.38608068 0.19253133 0.6979696
H 0.74444735 -0.94945866 -1.4926801
H -0.50653344 -3.0824978 0.94048375
H -0.23577598 0.3145754 -2.297516
H 0.65602934 2.3989966 0.9224289
H -1.0402949 -1.3192997 -0.6102544
H 0.46619564 2.788168 -0.81109476
H 1.9893584 2.075069 -0.21845376
H 1.5014398 0.5489103 -2.0186477
H -1.9469823 -1.3669727 0.92636436
H -0.4523205 -1.8853122 2.277656
