9

N -2.3386421 0.60069937 -1.0091438
C 0.008936326 -0.48453996 -0.6827008
O 0.045820773 0.71395874 1.504493
C -1.302049 0.116729885 -0.8507171
O 1.0357878 0.40691438 -0.36925063
C 1.0949267 1.098289 0.7803219
N 0.19296387 -1.6999635 -0.9286043
H 1.1710969 -1.9510214 -0.7848256
H 0.09115871 1.1989334 2.3404274
