9

N -2.55561754 -0.48967623 0.27837717
C 0.03655757 -0.74895144 0.37239022
O 0.70505651 -0.45770975 -0.81742206
C -1.40612906 -0.59113135 0.32564053
O 0.10885886 1.57781257 -0.52344352
C 0.75635809 0.76942824 -1.36011328
N 0.59618540 -1.23055945 1.38553358
H 1.60391696 -1.29586957 1.24180359
H 0.15481346 2.46665723 -0.90276610
