9

N -1.7302424 0.46862516 -0.78900737
C -0.76961243 0.3335747 0.010263308
O 1.6223627 -0.5133598 -0.50513315
C 0.9125467 -1.2888728 0.22954711
O -0.34110084 -0.90349734 0.5021647
C -0.11009331 1.4868628 0.602285
N 0.40106276 2.3960881 1.096982
H -2.0764465 -0.44590327 -1.0816479
H 2.0915232 -1.5335177 -0.06545373
