11

O 1.3681494 1.2026409 -0.422377
C 0.69625175 0.21591096 0.30927068
C -0.79467314 0.52416515 0.58450747
N -1.1143087 -0.71615595 -0.12388989
C 0.16858599 -0.96982676 -0.5238688
O 0.6678583 -1.7690853 -1.2755092
H 1.9785883 0.7522899 -1.0213398
H 1.2479305 -0.09788682 1.2054247
H -1.1010834 0.52760017 1.6322794
H -1.125312 1.4325367 0.07510028
H -1.9919871 -1.1021891 -0.4395978
