11

O 0.05943406 2.08086673 -0.77329188
C 0.40912628 -1.80007152 1.32569147
C 0.30505293 0.98462187 0.05197789
N -0.25535078 -1.47931054 0.22946820
C -0.39450116 -0.24256122 -0.47567997
O -1.06759090 -0.21327775 -1.47956141
H 1.38631453 0.78391415 0.11228823
H 0.90398971 -0.86810799 1.67021468
H -0.04600948 1.18324581 1.07772447
H -0.51277936 1.77838248 -1.49657743
H -0.78768593 -2.20770218 -0.24225420
