10

C -0.39287582 0.087403685 1.6747136
C -1.401753 -0.34378728 -1.6543784
N -0.9173262 0.423775 2.6456907
C 0.28332224 -0.32567883 0.42254308
C -0.68357223 -0.35666698 -0.69383746
N 1.4433621 0.53685325 0.18845317
H -2.0517218 -0.3360517 -2.5024564
H 0.65712416 -1.3426011 0.5943634
H 1.1152312 1.4702988 -0.054149907
H 1.9482094 0.18645516 -0.62094164
