10

C -1.2220526 -0.3831735 -0.34840795
C -0.09323102 -0.812362 -1.0450629
N 1.1380932 -0.43285185 -0.70345724
C 1.2213359 0.38280323 0.34926695
C 0.09403153 0.8131212 1.0442028
N -1.1393983 0.4352718 0.7013231
H -2.2178276 -0.70491654 -0.6429799
H -0.18291354 -1.4793545 -1.899976
H 2.2177083 0.7020467 0.64607483
H 0.18425405 1.4794153 1.8990164
