10

O -1.974577 -0.45796227 0.026742207
C -0.88734853 0.039439257 -0.086384386
C 1.1371245 -0.18378507 0.279045
C 0.0547738 0.8534405 0.73480725
N 0.17579578 -0.5219375 -0.96239525
H -0.21703504 0.92974925 1.7896345
H 0.9913727 -1.077822 0.9123216
H 0.42734167 0.057632767 -1.7644304
H 0.2620335 1.8500643 0.3268385
H 0.030518405 -1.4888192 -1.2561791
