10

O -1.0714169 -0.6750836 1.8015928
C -0.7410822 -0.31402728 -0.6702053
C 0.6014693 0.37792084 -1.0062256
C -0.45871067 -0.37327093 0.8179618
N 0.8709462 0.13542643 0.74070376
H -1.6429859 0.27759606 -0.8712091
H 1.4930177 -0.28166327 -0.087387085
H 1.3362962 0.6912584 1.451963
H 0.47945264 1.4657443 -1.0582212
H -0.8669863 -1.3039008 -1.1189728
