11

O 0.96597858 -1.84544258 -0.08027773
C 0.38900891 -0.81895233 -0.43330157
C 0.53873722 0.53771564 -0.00767582
N -0.83852435 -0.59125389 -1.10091750
C -0.94286384 0.71652876 -0.40671564
O 0.87381366 0.29978255 1.55465049
H -1.67793679 0.65220651 0.40356912
H 1.12413376 -0.66678911 1.50263681
H -0.95632434 -0.67654190 -2.10428368
H -1.15463340 1.57979076 -1.03919123
H 1.67861082 0.81295547 1.71150667
