11

O -1.5683553 -1.0207613 0.39266777
C -0.24822018 0.91220343 -0.48998126
C -0.31039158 0.11011897 0.77236104
N 1.0984339 0.6951599 -0.61267936
C 1.0853384 -0.40554908 0.36219466
O -1.0865011 1.4344819 -1.1891918
H -2.0884452 -0.49601933 -0.24352638
H 1.8468211 -0.3436837 1.1435008
H 1.7562622 0.9743784 -1.3247201
H -1.5650415 -0.46271753 1.2878288
H 1.0800993 -1.3976117 -0.09845406
