11

C 0.3953997 0.6000033 -0.14873995
N 0.9284436 -1.7308326 0.7371022
C 0.23157564 -0.8791278 0.1374431
O 0.52187055 1.4607205 0.9463833
C -1.0360181 0.47157297 -0.6794445
O -0.9947697 -0.96787375 -0.4615762
H -1.7801832 0.9460943 -0.037430007
H 1.1403717 0.79436374 -0.93174857
H 1.3408374 1.2334127 1.4049
H -1.2024074 0.70690167 -1.7321291
H 0.45487973 -2.635235 0.7652398
