11

C -1.09823769 0.73893123 -0.07220784
N 0.82071659 -1.79474081 0.71164490
C 0.28578836 0.33256451 -0.58838279
O 1.30181438 1.23891177 -0.26846142
C 0.08596833 -0.85148952 0.33609322
O -1.19613988 -0.51093434 0.66902499
H 0.29343267 0.04002259 -1.64678845
H -1.90058654 0.82604801 -0.80695735
H -1.07424987 1.59638056 0.60258104
H 0.33812461 -2.38465199 1.39143012
H 2.14336913 0.76895785 -0.32797629
