10

C -0.45009161 0.05937256 -0.21686933
O -1.72864602 -0.20675977 -0.58936378
C 0.34556611 -0.80829468 0.41507117
O 1.58150289 -0.38434288 0.88960613
N -0.05603387 1.32781981 -0.61666188
H 0.80181016 1.59512056 -0.15431221
H -0.79030265 2.01563376 -0.50669735
H 2.26641746 -0.74054257 0.30794979
H -2.00244986 -1.03451531 -0.17413837
H 0.03222735 -1.82349162 0.64541578
