10

C 0.59614766 1.3850628 -0.58306986
O -0.40553227 0.38647646 -0.38609028
C -0.02863343 -0.6253104 0.43179825
O 1.0518401 -0.715791 0.96290576
N -1.0621831 -1.5031668 0.5811285
H 0.8540969 1.8678476 0.3642219
H 0.15028884 2.1084876 -1.2669579
H 1.4978187 0.9506409 -1.0219666
H -1.8256338 -1.4628582 -0.073331386
H -0.82820964 -2.3913891 0.99136156
