11

N 2.2165625 0.6437542 0.42989644
C -0.9089998 -0.17609687 -0.89265156
C 0.33736327 0.24136996 -1.0860467
C -1.1227558 -0.42441463 0.5720992
C 1.0206406 0.29393646 0.22297081
O 0.13035434 -0.10599819 1.1807644
H -1.897823 0.21876608 1.0037206
H 2.442058 0.5913198 1.4229791
H -1.6789379 -0.3267327 -1.6392046
H 0.8303101 0.5120029 -2.0097175
H -1.3687724 -1.4679072 0.79518986
