10

O -0.20381570 -0.07732862 -1.86209784
C -1.00507493 0.19760350 0.60080262
C -0.07724451 -0.38179993 1.36334693
C -0.00012438 0.14398967 -0.53584415
N 0.91867175 -0.62247991 0.29871333
N 1.20658294 0.82005110 -0.13682962
H 0.08350689 -0.59642164 2.41200164
H 1.86180312 0.70275624 -0.91522801
H -0.80443441 -0.82476903 -1.96270684
H -1.97987109 0.63839877 0.73784216
