10

O 0.021661209 0.32651687 2.0207574
C -0.025179757 0.119432025 0.6888041
C 0.89037305 -0.2880818 -0.25481784
C 0.14420207 -0.28061697 -1.4600878
N -1.1081158 0.094506204 -1.2785802
N -1.1915393 0.33640537 0.049052313
H 0.9134053 0.13254978 2.3344967
H 1.9280478 -0.54628354 -0.10168866
H 0.4865776 -0.53805834 -2.4538977
H -2.0594325 0.64363056 0.4559619
