11

N -0.41128346 -0.5521224 -1.464143
C 0.19595373 -1.2960417 -0.64096683
O 0.77155423 -0.81680876 0.47468364
C 0.69667464 0.5946462 0.630038
C -0.7291392 1.0823078 0.8023447
O -1.0282053 2.2435813 0.70638156
H -0.7865904 -1.1007909 -2.231712
H 0.34235343 -2.3778698 -0.6898938
H 1.1562308 1.1151265 -0.21399662
H 1.2536474 0.81260145 1.5469934
H -1.4611955 0.2953706 1.0802708
