11

N 1.0141233 -0.119702816 -0.51496613
C -0.93366724 -0.15090206 0.3586042
O -0.8250845 0.5793806 -1.5079281
C 0.42344695 0.3675261 -1.5567684
C -0.085049026 -0.13871177 1.5924456
O -0.11576732 -1.0482618 2.3876755
H 0.9657654 0.6014087 -2.483116
H 0.5191505 0.77689385 1.7595893
H 2.013039 -0.2994896 -0.48872855
H -1.747362 0.56786776 0.4317914
H -1.2285951 -1.136009 0.021401102
