11

N 0.03964681 0.9890822 -1.2797242
C -0.91686326 -1.2090261 0.1826031
O 0.5880417 0.57468927 0.89999497
C 0.35181364 1.4082099 -0.1278111
C 0.49090454 -0.8086544 0.58610654
O -1.1664417 -2.2478127 -0.37164074
H 0.7492277 -1.3285079 1.5144862
H -0.09859354 1.7681628 -1.9165071
H 0.4745721 2.4427521 0.20491049
H 1.192838 -1.0908148 -0.20292178
H -1.7051461 -0.49808037 0.5105037
