10

O -0.9848506 2.299898 -0.17081916
C -0.25490513 -1.0192994 0.52234644
N -1.1603304 0.11766683 0.7018171
C -0.58655727 1.1663462 0.022800934
C 0.87493885 -0.60023564 -0.17713846
N 0.66593045 0.69052094 -0.47593477
H -1.2637322 -0.927583 -0.13920273
H 1.2833502 1.2979714 -0.99403805
H -0.34248805 -1.8844578 1.1685833
H 1.7686434 -1.1408273 -0.45841458
