10

O -0.24784418 -0.01997654 2.57410968
C -0.38925723 -0.39417473 -0.82655449
N -0.79475685 -0.66587481 0.35951367
C 0.72406443 0.57576722 -0.69410409
C 0.04130178 0.14276360 1.40643632
N 0.89990685 0.83891406 0.70950021
H -0.80941371 -0.82435105 -1.72904171
H 0.48882033 1.48609515 -1.26582942
H 1.62883553 0.15496077 -1.15762745
H -1.54165665 -1.29412362 0.62359767
