10

O 1.1267105 -0.6427275 2.2372508
C -0.8442987 0.37248868 -0.3721548
N -0.63600135 0.17254141 0.8775019
C 0.7996641 -0.41239882 1.091153
C 0.37975472 -0.054998457 -1.0910175
N 1.3209482 -0.511356 -0.103007145
H 0.119138785 -0.8410742 -1.8153841
H -1.270849 0.35719118 1.6424654
H -1.7643651 0.77544385 -0.78102064
H 0.76929784 0.78488976 -1.6857868
