11

O -1.40763832 0.83328265 -0.78825757
C 0.79373122 0.56968843 0.77456926
C 0.00220877 -0.97475497 -0.28477898
N 0.89087793 -0.90604746 0.80251797
C 0.15853749 0.41025263 -0.62347290
O -0.82950049 -1.80448756 -0.64670205
H 1.73737539 1.11489086 0.80143405
H 1.75363136 -1.41020513 0.92767241
H 0.12981315 0.92318976 1.57269885
H -1.44017176 1.31972803 -1.62102903
H -1.78886494 -0.07553726 -0.91465181
