11

O -1.534021 0.64329857 -0.728081
C 1.0751847 0.6311175 0.013427418
C -0.066251 -0.06650318 -0.75719744
N 1.0599737 -0.5378673 0.9196604
C -0.18539351 -0.91906893 0.390119
O -1.1544309 -1.5172142 0.8531239
H -2.0040233 -0.023013879 -0.16028841
H 1.9937061 0.7902208 -0.55175954
H 0.8058352 1.5419763 0.5616503
H -1.8513653 0.57939684 -1.6371492
H 1.8607857 -1.122343 1.0964947
