11

O -1.545171 -1.1277772 -0.0083036795
C 0.76777947 -0.38114113 0.64767015
C 0.026634295 0.96662843 -0.71861285
N 1.0578414 0.92723054 0.32344204
C -0.016183589 -0.5695063 -0.61612165
O 0.98101985 -1.0774827 1.6157435
H 0.36534137 1.3512492 -1.6837854
H -1.2305475 -1.5799679 0.80056816
H -1.047713 -1.6268225 -0.78455323
H -0.8962365 1.46243 -0.4051271
H 1.5372351 1.6551596 0.8290799
