11

N 0.9640107 0.85175234 0.6521131
C 1.8230861 -0.10902567 0.20854765
C -1.5177863 0.5623647 0.38908833
N 1.3381723 -1.0635092 -0.56068254
C 0.019401029 -0.66792077 -0.7337304
N -0.16448437 0.43781474 0.10372815
H -1.872579 -0.18485375 1.0932696
H -0.25844076 -0.49072164 -1.774736
H -1.2970195 -0.82734025 -0.4763664
H -1.8913146 1.5694046 0.5675848
H 2.8569543 -0.07796512 0.5311838
