11

N 0.2972124 0.3045719 2.0005023
C 0.11582013 0.10355572 0.7648621
C -0.6341976 0.84716046 -0.3410232
N -0.4260987 0.08414303 -1.5748148
C 0.2903401 -0.9152547 -1.2474293
N 0.6457375 -0.9937122 0.088855505
H -0.17162049 1.1578789 2.3020132
H -1.7045403 0.9162278 -0.11522562
H -0.25869384 1.8703839 -0.4612892
H 0.62292886 -1.6812583 -1.9425303
H 1.2231117 -1.6936965 0.5260788
