11

N -1.9506369 0.1378067 -0.43470064
C -1.0530044 0.30778956 0.51698303
C -1.1906608 -0.28886542 -1.4731843
N 0.17237832 -0.0019972764 0.06572073
C 1.4530936 0.024635287 0.7403882
N 0.09914193 -0.3911797 -1.2246916
H -1.2463753 0.6467156 1.5271138
H 2.135232 0.6804688 0.19515726
H 1.311772 0.401405 1.7548746
H 1.8689957 -0.98487383 0.7769917
H -1.5999368 -0.53190494 -2.444653
