11

N -1.51393062 -0.78688072 -1.04965346
C 0.91063087 0.77770766 1.10733232
C -1.21024536 -0.07588697 0.01927275
N 0.72787193 -0.53609552 -0.91952392
C -0.29324764 -1.03911833 -1.58291731
N 0.11897336 0.08371898 0.11346350
H 0.24083414 1.24340776 1.83231895
H -1.91042580 0.33340832 0.73680466
H 1.51436754 1.54462473 0.61738596
H -0.15109996 -1.61158648 -2.48978044
H 1.56627131 0.06670059 1.61529648
