9

O -1.4315096 -1.8911508 0.99482423
C -0.7107302 -1.0227597 0.5985988
N 0.60671717 -0.7428379 0.7740354
C -0.34039092 0.8947649 -0.55964947
C 0.86659956 0.4718421 -0.02457213
O -1.2846056 0.04576035 -0.2571507
H 1.7574656 1.0583444 0.15780334
H -0.59630156 1.7608804 -1.1571875
H 1.1327559 -0.5748437 -0.52670205
