9

O 1.2160152 -1.2854266 -2.3132498
C -0.60759085 0.56430686 0.14262968
N -0.2702167 0.18437114 -1.1875261
C 0.5233707 -0.5934717 -1.6780056
C 0.22711197 -0.11898797 1.2098167
O 1.0804217 -0.92640376 0.95900446
H -0.49749494 1.6498425 0.27090353
H -1.6652391 0.3443057 0.34705076
H -0.006378127 0.18146375 2.2493763
