12

N -0.65938723 -0.9482498 -1.2062924
C 0.032427404 -0.110136576 -0.2270439
C 0.31169075 -1.5650842 -0.31822947
N -0.2238598 1.7181737 1.0984622
C 0.7618367 1.866693 0.08585936
N 0.9651092 0.87057996 -0.6901096
C -0.65756094 0.52199215 0.91850704
H 1.2323477 -1.8795608 -0.80111253
H -1.6075747 -1.1454439 -0.89910597
H -1.4242172 0.06962236 1.5377233
H 1.304259 2.8023112 0.004997666
H -0.035070743 -2.2008972 0.49634448
