11

O 0.024348738 0.20734106 -2.2195597
C 1.1043754 0.39324325 0.78282887
N 1.4485192 0.07664363 -0.40019628
C 0.23535737 -0.46142086 -1.0226098
O -0.9611509 0.41796878 2.1042829
C -0.35334015 0.14586614 0.9556988
N -0.88659775 -0.32267 -0.099351324
H -1.9031478 0.21931899 2.0005565
H 0.41620514 -1.5381832 -1.1773684
H -0.89911246 0.06360655 -2.4587393
H 1.774543 0.79828554 1.5344576
