11

O -0.55682415 -2.2831936 0.0664171
C 0.18651406 -0.21562518 1.1289146
N -0.32147217 -0.3240021 -1.1341971
C 0.39859363 1.0236946 0.67277104
C 0.08753525 1.0293244 -0.79763764
C -0.25372756 -0.9835627 -0.038776204
H 0.29987007 -0.6106916 2.1299875
H -0.7165809 1.735371 -1.0432146
H 0.95643157 1.319196 -1.4005702
H -0.8134926 -2.5745401 -0.8215956
H 0.73315275 1.884029 1.237901
