10

N 0.22502043 -0.45487093 -0.05734222
C 0.65877102 -0.65460127 1.12134459
O -0.69989913 1.57793849 0.63609195
N -0.91954288 0.87461170 -1.51766485
C -0.48952840 0.75679448 -0.23192538
O 1.34322376 -1.74380000 1.43837348
H 0.51650667 0.02561217 1.95954693
H 1.42178549 -2.28106186 0.63276766
H -0.65769861 0.18280708 -2.19930637
H -1.39863827 1.71657005 -1.78188591
