10

N 0.6040629 -0.8071545 1.5048203
C 0.013599054 0.16973227 0.74216306
O -0.40130135 1.2179413 1.1880726
N -0.10196101 -0.17760812 -0.60488987
C -0.63976336 0.6715008 -1.5602006
O -0.7698885 0.34363312 -2.7130125
H 0.8305907 -0.51229215 2.4428513
H 1.2510756 -1.4515123 1.0788532
H 0.13439563 -1.1047531 -0.9302206
H -0.92080957 1.6505126 -1.148437
