10

N 1.4458257 -1.1684167 0.15659013
C -1.3307837 1.0066885 -0.15951279
O 1.2697419 0.6761374 -1.1691378
N -0.49475145 0.056315392 0.18473685
C 0.8042925 -0.084807135 -0.34732914
O -2.4062188 0.83523333 0.4942786
H -1.6099393 -0.14364477 0.88407934
H 1.0616634 -1.6905528 0.9252728
H -1.1513517 1.8086207 -0.87296194
H 2.4115214 -1.2955736 -0.096016094
