10

O 1.7519584 -1.1279337 1.0126978
C 0.8030764 -0.61051637 0.5014087
C 0.50705785 -0.08532169 -0.92928344
C -0.7230009 0.5824004 -0.30951655
O -1.5238287 -0.46606666 0.1996355
C -0.47302157 0.024334976 1.0321311
H 0.2937787 -0.81963223 -1.7083584
H 1.2965454 0.5990804 -1.2554095
H -1.1987485 1.5208858 -0.5645429
H -0.7338171 0.38276923 2.0212374
