12

C -0.111147605 -0.17502297 -0.7877696
C 0.31331182 -0.3546563 0.47078562
C -0.04875434 0.51271677 1.6453235
O -0.91307026 0.83456224 -1.2111262
N 0.17350022 -1.0155507 -1.8590225
H 0.34526473 -0.50710744 -2.7180054
H -1.1948032 1.3487272 -0.44646
H 0.9433097 -1.2220867 0.65507495
H 0.90661895 -1.6780231 -1.6554836
H -0.371677 1.5209829 1.3469332
H 0.81268305 0.6529263 2.306062
H -0.8552362 0.08253211 2.2536874
