12

C 1.03699634 0.02696616 1.37704624
C 0.44869056 -0.48578087 0.09098482
C -0.58700226 0.05998956 -0.56160249
O -1.25401665 1.17943064 -0.18276673
N -1.16940678 -0.45320387 -1.71595577
H 0.86999159 -1.39438083 -0.33357016
H 0.81752472 1.09054760 1.55181219
H 2.12813926 -0.06042897 1.36823247
H 0.67626293 -0.52532680 2.25478331
H -0.61381252 -1.17500382 -2.14963848
H -1.43595973 0.27051370 -2.37250099
H -0.91740812 1.46667759 0.67317564
