13

C -0.16686422 0.05263325 -0.10416922
N -0.21334518 -0.10125063 -1.3588125
C 1.457586 -1.6266296 0.022554334
O -1.650294 1.9644208 -0.088953
C -1.002595 1.0104682 0.7182005
O 0.6573206 -0.65264404 0.6868086
H -1.7919322 0.44655362 1.2240288
H -0.37155738 1.4647 1.4953173
H 2.1121461 -1.1524372 -0.71351844
H 2.0431845 -2.1024396 0.80903846
H -0.9260001 0.5193325 -1.7391585
H -0.9794372 2.5436103 -0.46623182
H 0.8317881 -2.3663175 -0.48510462
