9

O 1.7469627 0.53929305 -1.638574
C 0.891253 0.35355723 -0.81829935
N 0.2673149 -0.8129612 -0.44498602
C -0.67372966 -0.55610955 0.55534863
C -0.61681134 0.75842786 0.7837791
O 0.32542518 1.3356419 -0.03565331
H 0.48841015 -1.7003741 -0.8618194
H -1.2814722 -1.3271257 1.0005884
H -1.1473525 1.4096507 1.4596158
