10

N 0.48145531 -0.07130943 0.55205898
C -1.13105260 -1.16975118 -0.88218891
O 0.98519698 1.91698521 -0.45116901
C 1.32108880 0.93844384 0.17641155
C -0.89366898 -0.10274280 0.10255112
N -1.31105278 -2.03004460 -1.63112392
H 0.87058763 -0.88375732 1.00504911
H -1.57648117 -0.24190444 0.94625572
H -1.09993019 0.86800993 -0.35524238
H 2.35385725 0.77607073 0.53739769
