10

N 0.31758147 0.43334225 0.50300086
C -0.8959155 -0.04760947 -0.1215972
O 1.4059948 0.8653566 -1.4571669
C -1.094367 -1.4900275 0.08963255
C 1.3962626 0.80352646 -0.2487356
N -1.253971 -2.6162765 0.2883742
H 0.4305315 0.33614042 1.5002419
H -0.8034439 0.15458526 -1.1916653
H 2.2671783 1.071786 0.3780254
H -1.7698514 0.48917666 0.25989014
