11

C -1.72006356 -0.98919469 -1.14024663
C -0.88743994 -0.16762376 -0.28967426
C 0.43055518 -0.36125825 -0.24628145
O -1.63143174 0.74160639 0.38764501
C 1.39347340 0.42147794 0.59765134
N -2.36308421 -1.65773130 -1.82325608
H 0.83409222 -1.14909547 -0.87563962
H 0.90532797 1.11115036 1.29749606
H 2.01780989 -0.25389663 1.19248664
H -1.04961237 1.28941769 0.92681613
H 2.07037353 1.01514740 -0.02699711
