11

C -0.37016156 -0.50639826 0.22292678
C -0.3493652 0.4963316 1.3831158
C 0.08990605 0.0016552032 -2.250932
O 1.717901 -0.3911794 -0.5770021
C 0.47817448 -0.25133604 -0.8760524
N -0.25037503 0.19530824 -3.3405359
H -1.3651409 -0.89216095 -0.008382001
H -0.59934586 -0.0055646617 2.3229043
H 1.095798 -0.90279514 0.3899828
H 0.63610435 0.9585481 1.5033128
H -1.0834951 1.2975912 1.2306623
