10

O -0.5618358 -1.8789859 -0.791304
C 0.21302049 -0.9902381 -0.04710408
C -0.3164471 0.41994774 -0.14672859
O -1.2958055 0.6917864 -0.80838996
C 0.40264732 1.5258951 0.6088454
O 1.3771318 1.3171387 1.2840077
H -1.2633694 -1.3588908 -1.2063614
H 0.2390371 -1.2707409 1.0166488
H 1.2605982 -0.9838429 -0.3880751
H -0.054976817 2.527931 0.4784614
