10

O -0.67307429 -1.55801963 -0.96414023
C 1.14377371 0.12928647 0.29096523
C -0.99185789 -0.27740664 -0.89939609
O -0.77835388 1.52307685 0.67646872
C -0.37449749 0.22141373 0.40588777
O 1.81108575 1.13514552 0.31839936
H -1.05709633 -1.91126464 -1.78280465
H -0.66924829 -0.46517249 1.21807789
H 1.57930312 -0.87971274 0.16799747
H 0.00996588 2.08265390 0.56854471
