10

O -0.70316374 0.8131174 1.8891683
C -0.80345297 0.5675881 0.7115056
C 0.8114926 0.04919204 -1.0653583
O 0.07969484 0.46973258 -2.0605052
C 0.036097527 -0.54254204 0.087283954
O 0.82873327 -1.1654724 1.0333084
H -0.67629975 -1.2496073 -0.3814694
H 1.2266818 0.61451757 -2.1126947
H -1.480533 1.122158 0.036354695
H 0.68074936 -0.6786839 1.8624065
