10

O -1.3580334 -0.1845618 -1.4572941
C 0.59389895 0.7265639 2.3003485
C -0.46689042 -0.96235466 -0.7591351
O 0.5874445 1.1170799 -1.1384118
C 0.44074064 0.55100715 1.1199195
C 0.2425151 0.24098578 -0.25705612
H -0.07561825 0.780495 -1.8740482
H 0.73219544 0.9001955 3.3450954
H 0.18842924 -1.6258457 -1.3573562
H -0.8846817 -1.5435649 0.07793823
