10

C 0.38435483 2.055442 1.499005
C 0.18306969 1.0930349 0.80420196
C -0.058330107 -0.043157276 -0.020079568
C -1.204459 -0.7227588 -0.37332824
N -0.86836916 -1.7437578 -1.1977283
N 0.41617632 -1.7394146 -1.3797756
N 0.91436297 -0.72548497 -0.6782819
H 0.55327725 2.9117148 2.1177616
H -2.2270353 -0.5349231 -0.08484243
H 1.9069524 -0.550695 -0.68693244
