12

O 1.9457902 -1.3021677 -1.0324672
N -1.345624 0.55547565 0.4039997
C -0.7624877 -0.7055773 -0.08530319
C 0.6842269 -0.109196074 0.104928404
N 1.4586802 -0.1040245 -1.013462
C -0.0032470215 1.1415795 0.6321832
H 1.4249582 -1.3691925 0.12312516
H 0.2299354 2.0398753 0.050135285
H -0.96882546 -0.9879724 -1.1253165
H -1.8444991 1.042423 -0.32604903
H -0.99513125 -1.547144 0.5751969
H 0.17622374 1.3459212 1.6930293
