12

O 1.6136069 -1.0884092 -2.0715475
N 1.474016 -0.49137902 -1.0285109
C -0.19225489 -0.73707235 0.84334964
C -0.30972093 1.0751667 -0.19759458
N -0.9163569 0.5318171 1.0304713
C 0.067287944 -0.35550022 -0.627654
H 0.58963645 1.6837066 -0.032720678
H -0.79355246 -1.6357093 1.0150683
H 0.75066864 -0.81063867 1.4022636
H -0.5995079 -0.8202815 -1.3640032
H -0.67902213 1.0324516 1.8794007
H -1.0048007 1.6158484 -0.8485227
