10

N -1.0494031 -0.22021082 0.20066415
C -2.1748724 -0.676558 0.37513375
C 0.16309725 0.030425599 -0.14245561
O 1.0665433 -1.5832603 1.3484073
C 1.234853 -0.7771534 0.46309116
N 0.49341917 0.98084724 -1.1208186
H 1.1137263 1.7101903 -0.79372
H -0.32100675 1.3903984 -1.5592823
H -2.7583396 -0.28183624 1.210961
H 2.2319827 -0.5728428 0.018019335
