10

N -0.93387196 -0.04890219 0.56169164
C 0.10588638 0.00187127 -0.19132331
C -1.98072050 -0.31947468 1.14158146
O 1.23397790 -1.70701992 1.01282353
C 1.19579681 -0.95325808 0.06820379
N 0.20587032 0.87100794 -1.28868955
H -2.17486190 0.17685374 2.09594703
H 1.99392846 -0.91618215 -0.70361914
H -0.64364473 1.39563863 -1.45104400
H 0.99763905 1.49946545 -1.24557148
