10

O -0.19548461 -0.20463473 2.43763610
C 0.73372764 -0.09522125 -1.72803494
N -0.56590321 -0.43444707 -1.06441979
C -0.02305489 0.88847265 -1.40548398
C -0.11414896 0.30778427 1.19183895
N -0.39282088 -0.66694699 0.34994123
H 1.58146072 -0.61722551 -2.13742560
H -0.68887860 -1.60014381 0.62299403
H 0.01291491 0.51283474 3.04627463
H -0.34781200 1.90952728 -1.31332059
