10

O 1.2404848 0.5101713 -1.7527924
C 0.47279212 0.08588453 -0.73809665
N -0.06447047 -1.0928589 -0.6074557
C -0.75092226 -1.0250999 0.5924362
C -0.6127176 0.20309341 1.165047
N 0.19111289 0.9237468 0.2859693
H 1.3065649 -0.23869926 -2.3621507
H -1.3036048 -1.876491 0.9642133
H -0.9884073 0.6359549 2.0795586
H 0.50916785 1.8742977 0.37327108
