13

C -1.2446752 1.0358013 -0.67849725
N 0.263471 -0.08189809 0.94225484
C -0.17932338 0.036522344 -0.2660958
O -1.5115695 2.0089507 0.30360433
C 1.4800092 -1.6504372 0.2706813
O 0.31134483 -0.74568474 -1.1297495
H -0.9576367 1.4710983 -1.6445216
H 2.095438 -1.3202846 1.099159
H -0.7364232 2.5793905 0.37408146
H 0.79020596 -2.4475572 0.51357883
H 2.0446904 -1.8180612 -0.6402896
H -0.17830463 0.44810048 1.6892765
H -2.1772268 0.4840594 -0.83348244
