10

O 1.54384195 -1.38025334 -0.03678232
C -0.67205943 -0.53514395 -0.96762272
C 0.35182753 -0.83834213 -0.22253994
C -0.72696968 -0.15104726 0.48922006
N 0.45387103 1.76286160 0.59053582
N -0.63452598 1.25276537 0.88004269
H -1.20581972 -0.50065291 -1.89931830
H 1.88066429 -1.68906845 -0.89058589
H 0.41049342 2.74824486 0.88216988
H -1.40132355 -0.66936388 1.17488068
