11

O 1.1059601 -1.0221747 0.048340913
C -0.6966133 0.2534173 -0.0856123
C 0.34167203 1.074836 0.5641013
C 0.16277237 -0.693189 -0.91796863
O -0.8481358 -0.39696226 1.1840404
H -0.39893976 -1.559631 -1.3049337
H 1.367351 1.1240913 0.22749993
H -0.024978248 -1.0234295 1.0758679
H 0.57835764 -0.1414225 -1.7771647
H 0.044117264 1.6869334 1.413837
H -1.6315634 0.6975309 -0.42800817
