11

O 0.16240626 1.49981341 -0.11543003
C -0.47459213 0.50058277 -0.92455488
C 0.49747105 0.53489041 0.89219531
C -0.38817476 -0.52651130 0.21713293
O 0.12222986 -1.80411190 -0.02945759
H -1.46980942 0.81251903 -1.26084668
H 0.21991107 0.87298212 1.89714719
H -1.34069130 -0.67894817 0.72980098
H 1.56762266 0.27504624 0.88082000
H 0.13437827 0.22736903 -1.80021433
H 0.96924847 -1.71363151 -0.48659268
