12

N -0.27109382 -0.007475825 -2.0484262
C -0.16024172 -0.038977887 -0.6527298
C -1.0332807 -0.31357834 0.3347663
N -0.356081 -0.10039608 1.5480835
C 0.93471617 0.33148062 1.3302872
O 1.7761122 0.65520954 2.146954
N 1.052503 0.3112515 -0.054091673
H 0.2868509 -0.7259809 -2.4970982
H -1.2325523 -0.115311846 -2.3409295
H -2.0500872 -0.6704349 0.2924793
H -0.76277244 -0.09339653 2.4657772
H 1.8159266 0.7676106 -0.5250721
