12

N 0.38496935 -1.1736947 -0.97826076
C 0.2901554 -1.0669463 0.43903807
C -0.1479035 0.19975705 0.6980721
N -0.29942477 0.8635373 -0.50674766
C 0.015517294 0.014757208 -1.4739891
O -0.13005646 0.5772216 -2.6196842
N -0.48248604 0.80944496 1.9018925
H 0.5282502 -1.8935164 1.089706
H -0.061068535 0.35787717 2.7018254
H -0.2819621 1.8008612 1.9008684
H 0.6604487 -1.9805994 -1.5108082
H -0.47643957 1.4913001 -1.6419123
