12

O 0.8729808 1.9621272 -1.2805231
N 1.0107625 1.4082364 -0.005968062
C 0.31170422 0.36614993 0.10369021
C 0.13525961 -0.60700333 1.2415568
N -0.56070006 -1.513382 0.29427338
C -0.58898073 -0.47785592 -0.76979935
H 1.471129 2.7190752 -1.2410382
H -0.4923635 -0.2162045 2.0531244
H 1.0521425 -1.0249271 1.6682904
H -1.4801748 -1.7963628 0.61070156
H -1.5689422 -0.01661751 -0.9509402
H -0.16281731 -0.80323535 -1.723368
