9

N 2.3388612 -0.9900517 0.8094322
C -0.18806455 -0.4116007 0.7457467
C -0.82077885 -0.24802414 -0.57735074
C 1.2119722 -0.72368723 0.73350304
N -0.40188125 1.085493 -0.1330149
H -1.8998712 -0.358997 -0.661276
H -0.27076763 -0.5863253 -1.4541321
H -0.48910508 0.8916885 1.0176158
H 0.51963514 1.3415047 -0.4805238
