10

O 0.0599403 -1.4485115 1.666232
C 0.038076695 -0.47718072 0.7378788
N 0.13685183 0.800277 0.9520452
C 0.05674418 1.3639871 -0.31089836
C -0.0896016 0.40571284 -1.2653358
N -0.10033895 -0.80032706 -0.56844085
H 0.16459912 -0.99176294 2.512838
H 0.11115271 2.4355483 -0.44524023
H -0.18579817 0.44347006 -2.340003
H -0.19162609 -1.731213 -0.93907547
