10

O -1.9994084 0.65029854 0.48184958
C -0.77635497 0.17801757 0.3637931
N -0.16842036 -0.4915223 1.3558339
C 1.2083308 -0.31472704 -0.48023215
C 1.0752754 -0.8517752 0.9453512
N -0.07841863 0.34123266 -0.74714714
H -2.289497 0.40598592 1.3767495
H 1.389797 -1.1347184 -1.1824471
H -0.39959335 0.82215434 -1.5706124
H 2.038289 0.39505386 -0.5431387
