10

O -0.17975071 -2.1308837 -0.18969958
C 0.38458705 1.2185432 -0.45026386
N -0.2100928 -0.16946685 1.064601
C -0.0008104961 -0.8121343 -0.12082428
C 0.09727909 1.1868043 0.959151
N 0.35184026 -0.027482793 -1.0881823
H -0.52906036 -0.6240457 1.9051322
H -0.7222717 1.6703734 -0.012989672
H 0.021997347 -2.394401 -1.0990834
H 0.78628224 2.0826936 -0.96784073
