17

C -2.4800909 -0.9283931 0.59709024
N -1.3219578 -0.42600715 -0.1193636
C -0.265148 0.06913404 0.6242411
O -0.3507952 0.21937582 1.8371065
N 0.8579179 0.42068285 -0.09271002
C 2.067945 0.76228046 0.6264975
C 0.9336567 0.34831336 -1.5385475
H -2.2658606 -1.8360846 1.1767076
H -2.830813 -0.16375019 1.2933472
H -3.274666 -1.1410396 -0.12234829
H -1.092163 -0.92857283 -0.96225953
H 2.8557992 0.013430002 0.46080324
H 1.8336376 0.80415815 1.6899096
H 2.4497235 1.738275 0.30304357
H -0.022168964 0.64202124 -1.9828116
H 1.6918182 1.0565041 -1.8865815
H 1.2131655 -0.6503275 -1.9041246
