17

C 1.353836 -0.6810728 -0.7252306
N -0.2019471 1.4989516 0.026716955
C -0.642273 -2.1344793 -0.42028728
O -1.9419173 0.1094759 0.5372799
N -0.035772335 -0.8191392 -0.3202831
C -0.8133275 0.21506995 0.105122685
C -0.2506008 2.6036139 1.3704216
H -0.6302279 -2.4795923 -1.460942
H -0.79825693 2.4241288 0.03212838
H 0.6275516 1.611029 -0.53819954
H -0.8807769 2.0098414 2.0353746
H -1.6724365 -2.0646925 -0.07195864
H 1.454634 -0.39717975 -1.7838174
H 1.8531777 -1.6436187 -0.5859516
H -0.09653861 -2.8538494 0.19914433
H 0.79472286 2.5553808 1.6984308
H 1.8801527 0.04613279 -0.09794908
