9

N -0.94140655 1.2539839 2.2894235
C -0.7617337 0.46727324 1.4519434
C -0.55089337 -0.55412793 0.48070893
C -0.3787906 -0.09456881 -0.9158197
N 0.84800106 -0.39361402 -0.14307071
H 1.4341018 0.4035885 0.09127433
H 1.3603842 -1.248302 -0.32202235
H -0.57555515 -0.79055125 -1.729266
H -0.43410805 0.9563184 -1.2031713
