11

C -0.77055657 0.87897474 1.5424987
N 0.58696085 0.5162582 1.1783751
C 0.8328285 -0.05555179 0.09559452
O -0.14406477 -0.3899538 -0.8354458
C 0.2498058 -1.0259613 -1.9663312
O 1.3751936 -1.3354939 -2.2401195
H -0.7854978 1.9520522 1.7497236
H -1.014853 0.36374122 2.4773297
H -1.5371536 0.6446749 0.79465234
H 1.8400741 -0.335147 -0.20337527
H -0.6327372 -1.2135934 -2.5929022
