11

C -0.85894848 0.04378934 1.30855621
N -1.07198277 0.42107548 0.04852349
C 1.61956899 -0.70935559 -0.46955631
O 1.11103917 0.53631516 -0.70702132
C -0.23894339 0.58887664 -0.97232348
O 2.77143620 -0.88093084 -0.20656060
H -0.56054677 1.12773184 -1.85170044
H 0.15012741 -0.04083849 1.68283032
H -1.71943613 -0.16488019 1.92675561
H 0.84367280 -1.49987581 -0.57074214
H -2.04598712 0.57809253 -0.18876135
