11

C -1.3523214 -0.3619279 0.7016156
N -0.99828833 0.5326636 -0.2202182
C 1.6875403 -0.7061672 -0.014415412
O 1.2859924 0.590824 0.13809991
C 0.19401772 0.96911603 -0.6102899
O 2.6082833 -1.1575735 0.5970317
H -0.6124664 -0.75816536 1.3806499
H -2.3883815 -0.66370285 0.74240535
H -1.7707304 0.9312235 -0.7437888
H 1.0715154 -1.2447956 -0.7677868
H 0.27483863 1.8685049 -1.2033035
