10

O 1.1349746 -1.3472046 1.3550541
C -1.3103479 0.60596424 -0.5802298
N 1.0173719 0.27183706 -0.3237254
C 0.58250743 -0.5933697 0.59356457
C -0.077365965 0.948872 -0.9895841
N -0.9166415 -0.44075504 0.49902895
H -1.285152 -0.16940519 1.4117216
H 2.0014808 0.40012348 -0.5000995
H 0.19037779 1.6694307 -1.7504724
H -1.337205 -1.345493 0.28474188
