9

O 0.85967267 -0.9908579 1.5984825
C -2.4317415 0.84504515 -1.480928
C -1.1563323 0.39487743 -0.8490213
C 1.0698882 -0.5843998 0.2690761
C -0.1424241 -0.054385874 -0.37150508
N -1.9882256 1.9238514 -1.1710935
H 1.4075817 -1.4698219 -0.27594116
H 1.8644502 0.17398405 0.18583168
H 0.5171302 -0.23829234 2.0950987
