11

C -1.8319571 0.18318845 1.0380921
C -0.63815427 -0.32975122 0.42989364
C 1.1034539 0.11409342 -1.047209
O -0.7486938 -1.5546058 -0.005341096
C 0.5793497 0.5224219 0.24447599
N -2.7430348 0.6599478 1.5700097
H 0.09740253 -1.65178 -0.5291122
H 2.0814104 -0.34071478 -1.1386235
H 0.60264593 0.46368453 -1.9458258
H 0.23405309 1.5691199 0.29111466
H 1.2635248 0.36439592 1.0925256
