9

O 0.056550454 -1.4041088 1.2616459
C 0.0031630557 -0.45711774 0.31915957
N -1.1227319 0.11659628 -0.106050774
N -0.6865783 1.0875667 -1.089988
N 0.62248224 1.0508728 -1.1737866
C 1.0808235 0.07820706 -0.38609272
H -1.2338209 1.3482637 -0.013374903
H 2.125876 -0.19471864 -0.33938456
H -0.845764 -1.6255614 1.5278721
