9

O 1.6825602 0.9280279 0.60629416
C 0.5641909 0.30750346 0.19356342
N 0.4292906 -0.24637756 -0.9986978
N -0.8112802 -0.72616696 -0.9561922
N -1.4808007 -0.5278102 0.15728836
C -0.62384653 0.13791 0.9262607
H 2.3234942 0.8900414 -0.11626557
H -1.2105577 -1.218979 -1.7384189
H -0.87305075 0.45585105 1.9261676
