11

C -2.25050126 -1.56356873 -0.33916707
C -0.08460210 -0.16288575 -0.18542717
C 1.18692124 -0.84028133 0.07541376
O 0.84213650 -0.36628768 -1.22280292
C -0.35716320 1.26188662 0.22234361
N -1.24573268 -0.95976807 -0.27658966
H -0.85653544 1.28992130 1.19460610
H -1.00091751 1.74750890 -0.51526205
H 0.58589745 1.81128881 0.28530260
H 1.98323125 -0.29358554 0.57740228
H 1.19726576 -1.92422887 0.18418051
