11

C -0.5193161 1.1352949 0.47924107
C -0.1276477 -0.23159479 -0.030494168
C 1.2607985 -0.71298826 0.02750582
O 0.2807805 -1.1819319 0.9385356
C -0.99032724 -0.7737516 -1.0780346
N -1.6833199 -1.167821 -1.9133633
H -1.5246844 1.1094481 0.9082844
H 0.18448378 1.4511075 1.2538366
H -0.50825065 1.8665255 -0.33434838
H 1.6125749 -1.4441307 -0.69771725
H 2.0149083 -0.0501581 0.4465542
