10

N 0.2450044 -0.6217591 0.5710204
C 0.2774995 0.7146766 0.18982746
N 1.0068624 1.6996874 0.50684834
O -1.2356834 -0.4713353 -1.0410614
C -0.64134085 -1.3519111 -0.19895874
O -0.87610793 -2.5253913 -0.17359124
N -0.7966935 0.8375201 -0.7005132
H -0.57202476 1.3177142 -1.563787
H 1.7429686 1.4504731 1.1592897
H 0.84951556 -1.0496745 1.2509255
