10

N -0.8272012 0.8712011 1.3507879
C -0.17273708 0.17709504 0.35015598
C 0.35335246 -1.0667433 0.21225254
N 0.9875266 -1.1478211 -1.0242323
C 0.8109226 0.007343466 -1.5507503
O 0.11288029 0.88256043 -0.7731556
H -1.5033779 1.537809 1.0016005
H -1.2341468 0.26800153 2.050646
H 0.33620492 -1.9022012 0.89783704
H 1.136576 0.3727549 -2.5151417
