11

N 1.0016366 -2.2665524 0.96045125
C -1.3654624 0.37643963 0.4698716
C -0.13994111 1.0432329 0.002379792
C 1.0148093 -1.2537487 0.39833617
C 1.0071884 0.085665755 -0.21263327
O 0.6455365 -0.04973613 -1.5898274
H -2.2779346 0.9085565 0.19494994
H 2.00009 0.52910036 -0.08126756
H 0.8036216 0.8028113 -2.0178103
H -1.2334617 0.5299617 1.560522
H -1.4560823 -0.70573145 0.31502798
