11

N 1.3672994 -0.6694279 2.5921736
C 0.6603948 -0.6744141 1.6801203
C -0.24293438 -0.6531723 0.51492995
C -0.53135675 0.7428102 -0.07418375
C 0.24196535 0.22195011 -1.2915034
O 0.40276134 -1.0776916 -0.6849689
H -1.1216063 -1.2651908 0.74672246
H -1.5916995 0.933224 -0.24274828
H -0.080229685 1.5790507 0.4611473
H -0.3159205 0.16246477 -2.229491
H 1.2113261 0.7003973 -1.4721981
