14

C -2.393289 -0.07467622 0.9720929
N -1.3515126 0.13627785 -0.013623778
C -0.03328166 0.03528022 0.3445035
O 0.35345796 -0.080840595 1.4924171
N 0.84352225 0.1044633 -0.7344079
C 2.2161775 0.0031863267 -0.59060276
N 2.9626222 0.10676361 -1.6155568
H -2.037754 0.296962 1.9331343
H -2.652691 -1.1350505 1.0824162
H -3.2862902 0.4827029 0.67831326
H -1.5940927 -0.018355768 -0.9792676
H 0.51575077 0.29968017 -1.6716863
H 2.5221505 -0.16802447 0.44126168
H 3.9352298 0.011631182 -1.338994
