13

C -0.21804374 -0.36249778 0.1144101
C 0.95263326 -1.3266647 -0.009860746
N -1.0273994 -0.47309875 -1.1273662
O -2.1147704 0.059670985 -1.0207423
C 0.22854115 1.1077542 0.22691739
O -0.8090615 1.9663943 0.61129975
H 1.5704156 -1.2899505 0.89331716
H 1.0003805 1.1769683 1.0014768
H 0.60147035 -2.352895 -0.1467449
H 1.5792568 -1.064258 -0.8698637
H -1.5893255 1.7420919 0.08453665
H -0.86166775 -0.5898527 0.973526
H 0.687571 1.4063375 -0.7309059
