10

O -0.23635552 2.91348691 0.15828716
C 0.15236167 -0.50611961 -0.48550100
O 1.40677089 -0.20096103 0.09184319
C 0.56490689 -1.11204743 0.78702026
C -0.50283775 1.83241984 -0.17561267
C -0.82719602 0.61560466 -0.55980305
H 0.91878771 -2.14167399 0.81074351
H 0.13546678 -0.73015200 1.71105963
H -1.82115034 0.45397947 -0.95658684
H 0.20924554 -1.12453640 -1.38145000
