10

O 1.2879621 -0.13034356 0.59328663
C -1.3388458 0.63037753 1.2048087
O -1.7051653 0.58278555 2.306967
C -0.94624174 0.6918735 -0.05039248
C 0.44929436 0.34257993 -0.4425562
C 0.9468962 -1.0390979 -0.44590738
H -1.6593388 1.0281895 -0.79193777
H 0.2691765 -1.8392154 -0.15501279
H 1.7694523 -1.3203183 -1.1018356
H 0.92681 1.0531691 -1.1174203
