10

O 0.033330552 -2.5505116 0.5172938
C -0.23927075 -1.9926451 -0.50859696
O -0.23488829 -0.66872597 -0.69746816
C 0.13369997 0.09564527 0.46353042
C 0.10075194 1.5122222 0.10922958
C 0.08790759 2.6855834 -0.14005306
H -0.5307856 -2.490056 -1.445389
H -0.5651504 -0.11963231 1.2778541
H 1.1357939 -0.20130655 0.79252255
H 0.07861098 3.7294269 -0.36892322
