11

N -0.69590527 0.40455356 1.9853009
C 0.022265023 -0.26343858 1.016807
O 0.7365448 -1.2155411 1.2457769
N -0.121386856 0.28547633 -0.2511248
C 0.5254548 -0.2302657 -1.3635303
N 0.4046426 0.35477105 -2.4857678
H -0.7293975 -0.08804878 2.865579
H -1.5470526 0.87838936 1.7224296
H -0.62382466 1.1510986 -0.39565
H 1.0972458 -1.1318861 -1.1447533
H 0.9314139 -0.14510846 -3.1950667
