11

N -0.02678855 0.018816851 -0.15658346
C 0.83419347 -0.56186295 0.7969889
O 1.9880295 -0.8364824 0.59647
N -0.6071781 0.8895474 -2.1066701
C 0.41742694 0.4472791 -1.370488
N 0.17717372 -0.82117987 1.9871635
H -1.0189313 0.025706874 0.09940933
H -1.5864284 0.9148933 -1.8218321
H -0.5692174 -0.21233039 2.2803802
H 0.80656147 -1.1084266 2.7217915
H -0.4148415 1.2440386 -3.0266297
