11

N -0.77950156 -0.01150439 2.01166369
C 0.17855945 -0.52714323 1.15628572
O 1.01113341 -1.32866703 1.48996437
N 0.02638015 -0.03115136 -0.15467303
C 0.90931769 -0.32435917 -1.14911862
N 0.49795056 0.21011210 -2.30345755
H -0.60352655 -0.24756131 2.97687239
H -1.12570170 0.92143395 1.85822006
H -0.34812485 0.76264069 -2.44336757
H -0.83305338 0.50111976 -0.32197057
H 1.06656681 0.07508016 -3.12041838
