11

O -1.0516449 -0.40392926 0.911463
C -1.0895953 0.87312317 0.26909786
C 0.18057121 0.25815737 0.6405494
C 1.0371042 -0.44555196 -0.3887324
O 0.24750267 -1.0365993 -1.3925841
H 1.663586 -1.193083 0.123754896
H 1.7035147 0.27570775 -0.8733879
H 0.69882774 0.6186573 1.530079
H -1.4065223 0.8459824 -0.77107435
H -1.4991484 1.6767251 0.87965953
H -0.48419565 -1.4691898 -0.92882496
