11

O -1.1199433 1.2527727 -0.4872178
C -0.61415654 0.7311132 0.71792907
C 0.46410668 -0.29791102 0.45407504
C 0.425704 -1.1369349 -0.739618
O 1.2836766 0.0067758313 -0.6699852
H -0.34578225 1.4302189 -1.0409957
H -0.19846477 1.5247077 1.3589399
H -1.4481031 0.2675413 1.2544318
H 1.0143688 -0.65007657 1.3273045
H -0.4065079 -1.0336964 -1.4318676
H 0.945102 -2.094511 -0.742996
