11

C -1.1345559 1.144759 0.60182285
C -0.22077167 0.029430402 0.20844524
C 0.76269215 -0.013791999 -0.7452026
N 1.2461329 -1.2755183 -0.6534294
N 0.61446667 -1.9762813 0.2887516
N -0.27234367 -1.1943111 0.8131009
H -2.179454 0.8574412 0.45692948
H -0.935663 2.0384223 0.004477488
H -1.0031888 1.3985188 1.6576688
H 1.1421148 0.71083474 -1.4496843
H 1.9805703 -1.7195039 -1.18288
