9

O -2.2721126 0.46421176 0.6961249
C 0.94751894 -1.1035801 0.15481815
N -0.5129417 0.64729583 -0.9555392
C -1.2038193 0.42206684 0.17201807
C 0.26864073 0.23354426 0.25405154
O 0.86201525 -1.8300205 -0.79770094
H 0.80600584 0.98761433 0.8305579
H -0.43967408 1.5490451 -1.4054555
H 1.5443667 -1.3701776 1.051125
