9

O -0.49789825 -1.3239902 0.79600716
C -0.33346626 0.39296705 -0.73224086
N 0.30887145 1.1110097 0.38096803
C -0.7948532 -0.86558706 -0.3309143
C 1.1764393 0.19095838 0.6401528
O 2.1671307 -0.36644536 0.8193426
H -0.25993732 1.4365509 1.1631579
H -1.3981829 -1.4537636 -1.039703
H -0.36810368 0.8782999 -1.6967704
