9

O 1.7424748 0.5373341 -1.643216
C 0.8885718 0.3550689 -0.8199033
N 0.26578715 -0.81341106 -0.44311184
C -0.671174 -0.5572093 0.5572529
C -0.61621356 0.75848544 0.78401536
O 0.32416543 1.336442 -0.038355883
H 0.49120528 -1.7000474 -0.85830057
H -1.2771698 -1.3277872 1.0040562
H -1.1476469 1.4111242 1.457563
