14

C 0.5775547 0.918235 1.7488698
N -0.1378362 -0.21741751 1.1881405
C -0.5911737 -0.24137329 -1.8181657
O -1.3285327 0.56289613 -0.8721974
N -0.77321345 -1.4282036 -0.94644916
C -0.31173113 -0.23510145 -0.1865345
N 0.68073344 0.20188458 -1.216009
H -0.8412535 -0.20237389 -2.8800511
H 1.4247347 -0.49571133 -1.3293877
H 0.58735824 0.8307824 2.8390346
H 0.0013742334 -2.094854 -1.0356989
H 0.12230329 1.8751316 1.4673022
H 1.6104218 0.923755 1.3931473
H -1.0207394 -0.3976494 1.6479993
