14

C -1.3124247 -1.210202 -1.0148952
N 0.48868826 1.0916715 1.4394372
C 0.07092928 0.27078953 0.25820035
O 1.0164107 -0.7891499 0.57272506
N -1.231164 -0.089353606 -0.0759344
C 1.647713 0.5085628 0.7308168
N 1.1261662 0.94254297 -0.58235204
H 0.9789152 1.9545113 -0.5563332
H 2.6878176 0.5626793 1.04734
H -0.8325532 -2.0812953 -0.55952543
H -2.3598135 -1.4384735 -1.1994123
H -1.7608073 0.71575457 -0.38361785
H 0.28635767 0.5620819 2.2914824
H -0.806236 -1.0001197 -1.9679313
