10

O 0.53990742 -1.63969638 1.07712361
C -0.64743931 1.15772812 -0.02270778
N -1.01477404 0.03190189 0.45258249
C 0.01938706 -0.91058747 0.02033503
C 0.66461322 1.02849392 -0.70966665
N 1.08549012 -0.17685286 -0.64673109
H -1.22592522 2.06877802 0.09711446
H -0.19673106 -1.83581757 1.66883192
H 1.22454420 1.82622383 -1.18906909
H -0.44907211 -1.55017174 -0.74781319
