11

O 0.24903063 -1.70028700 -0.56139207
C -0.32048589 -0.55015018 0.41660914
C -1.05278152 0.64906558 -0.21305846
N 0.10605778 1.46876232 0.22209115
C 0.83669564 0.30560356 0.46959833
O 2.03532361 0.03999479 0.47291935
H -2.00804038 0.90397733 0.24625582
H 0.02548139 -2.52955402 -0.11747911
H 1.22304925 -1.52506606 -0.45180806
H -1.14079941 0.65887989 -1.30546731
H 0.04646901 2.27877361 0.82173102
