9

O -0.37938422 1.3378179 1.0176464
C -0.5897587 0.15646385 1.0776093
N 0.5764176 -0.23285612 -1.0618699
C 0.8916627 0.9058548 -1.3536777
C -0.12690343 -0.83032125 0.021980142
O 1.2755315 1.9176302 -1.7897516
H -1.1433762 -0.29981276 1.921907
H 0.50407356 -1.58278 0.5141129
H -1.008263 -1.3719966 -0.34795663
