9

O 0.44543641 0.92597620 1.78307568
C 0.04324483 0.29601111 0.66757554
N -0.14942204 -0.58753151 -1.26117376
N -1.30141019 -0.78694965 -0.63021582
N -1.18813518 -0.24927234 0.54994692
C 0.74601261 0.09272235 -0.49628662
H 1.73813840 0.35606900 -0.82181300
H -0.04010215 -0.93813493 -2.19900089
H -0.29376275 0.89110993 2.40789175
