9

O 1.6817452 0.92885447 0.60562843
C 0.5641338 0.30833456 0.1949454
N 0.43022504 -0.24571042 -0.9983274
N -0.809844 -0.72681737 -0.95635056
N -1.4809433 -0.5295347 0.15664555
C -0.62539107 0.13710274 0.9265895
H 2.3241057 0.889214 -0.11559723
H -1.2088624 -1.2169139 -1.7401506
H -0.87516904 0.45547077 1.9266167
