10

N 1.6335691 0.40290517 0.22923829
C -1.328885 -1.0090723 0.22624397
C -0.4860622 0.5619939 -1.1538782
O -1.4036496 -0.37695995 -1.0561817
C 0.19528577 0.5275699 0.21677172
N -0.43817514 -0.5650594 0.9827823
H -2.0460036 -1.8055862 0.37728715
H 2.0480952 1.2080829 -0.2307545
H -0.08506168 1.4689108 0.71832335
H 1.910887 -0.41278476 -0.3098322
