10

N 0.48272443 1.7178469 0.14560503
C 0.1905149 0.35062605 0.20197457
C 1.1837894 -0.70380384 0.27187616
O 0.4067849 -1.800395 -0.047446482
C -0.8521029 -1.3889964 -0.37363675
N -1.0769529 -0.14174578 -0.26440307
H -1.5445014 -2.1619604 -0.6824296
H -0.34360567 2.2602353 -0.068602376
H 0.32540697 -0.046428636 1.3260176
H 1.2279423 1.9146217 -0.5089551
