12

N -2.01575726 0.77821349 -0.53728690
C 0.08343438 -0.02087533 0.38019352
C -1.05946290 0.66409662 0.57181350
N -0.18622446 0.35793497 -2.05535711
C -1.23442999 0.62775109 -1.48843008
N 0.92428946 -0.48539766 1.39526069
C 0.48595164 -0.51270563 -1.01977479
H 0.66649304 -0.15487790 2.31488573
H 0.26699660 -1.58490229 -1.13903057
H -1.40232884 1.03876269 1.53079871
H 1.56380798 -0.37717825 -1.17639530
H 1.90723055 -0.33082188 1.22332269
