9

O -1.2396241 -0.45991012 1.0788667
C -0.07272603 0.17625819 0.6678617
C -0.59508467 2.6175306 -0.10997818
C 0.63365585 -0.5468887 -0.4091194
C 1.1747173 -1.17314 -1.2780901
N -0.3389377 1.5234592 0.23748006
H 1.6655971 -1.728729 -2.0482476
H 0.5587948 0.23793283 1.5578527
H -1.7863926 -0.6465128 0.30337396
