11

C -0.3967316 0.7013194 0.5684017
C -0.28170606 -1.5787768 0.52505445
C 0.72037715 1.2209632 -1.2242346
N 1.0961828 -0.0054626116 -1.0475885
C 0.28069055 -0.3901302 0.005571046
O -0.1705246 1.7561078 -0.37478366
H 0.31981236 -2.4688766 0.70822835
H -0.16040285 1.0604717 1.5685844
H 1.0390676 1.8638312 -2.0387647
H -1.2990695 -1.7913934 0.20689818
H -1.1476959 -0.36805332 1.1026331
