11

C -1.14084674 0.01158691 -1.36125785
C 0.53329226 -0.04881984 -0.03055704
C -0.72148518 0.11364246 0.80811017
N 0.12721198 -0.10453863 -1.38966960
C 1.78889058 -0.12828416 0.39224772
O -1.77028731 0.14743745 -0.17921456
H -0.90519276 -0.72901450 1.48066798
H -1.79652543 0.01245379 -2.22767254
H 2.59941541 -0.24776690 -0.31658105
H -0.74857677 1.04864764 1.37501010
H 2.03410437 -0.07534410 1.44891674
