12

C 1.6706332 0.088433884 0.72832066
C 0.039816692 -0.6524698 -0.91218793
N 1.206429 -0.17587787 -0.49708593
C -1.700697 0.2960283 0.3069866
O -0.9283462 -0.8660971 0.027072228
H -1.0565516 1.1230016 0.6322486
H -2.2722986 0.60804075 -0.57892025
H 2.7138288 0.35208526 0.81859976
H 1.0528499 -0.14436372 1.5794817
H 1.8696681 -0.026075814 -1.2480289
H -0.20116794 -0.63328236 -1.965067
H -2.3941643 0.030576732 1.1085804
