12

C -1.08315521 1.26630782 0.54542019
C -0.57465050 -0.59053098 -0.76186543
N 0.71541599 -0.88442446 -0.66292658
C 1.54541645 -0.89038949 0.38494327
O -1.20999380 -0.13896216 0.35956675
H 2.53421535 -1.29696052 0.23362847
H -1.56861332 1.50588118 1.49455089
H 1.15049258 -0.66740022 1.36199852
H -1.02473810 -0.48222516 -1.73792234
H 1.12479761 -1.19618773 -1.53553901
H -1.58271507 1.81447180 -0.26628623
H -0.02647196 1.56042025 0.58443149
