11

N -1.4353219 0.8396166 0.7190813
C -0.34726316 0.11222482 0.19238128
C 0.73887867 0.7412355 -0.5462257
N 0.70319897 -2.155048 -0.0702794
N 1.7051692 0.04878109 -1.0161654
C -0.050549254 -1.21849 0.22388898
H -2.3273416 0.63242435 0.2904771
H -0.49957928 -2.247569 0.64023966
H 0.63603693 1.8274052 -0.64974767
H 2.388434 0.61329997 -1.5093671
H -1.5116624 0.8061196 1.725717
