12

O -0.06531591 1.38125207 0.88681997
C 0.77981449 1.95585941 -0.10315966
C -0.39698483 0.09959815 0.67762793
C -0.47564802 -1.95356087 -0.37172820
N -0.01158751 -0.57978724 -0.31034883
H -1.03051485 -2.09991249 -1.30436331
H 0.29666504 1.93008184 -1.08541088
H 1.72649243 1.40844458 -0.16703267
H 0.94963442 2.98504008 0.21792019
H -1.12015719 -2.25147496 0.46966225
H -1.04290230 -0.25249671 1.49011494
H 0.39050409 -2.62304414 -0.40010159
