9

N -0.73356223 0.07197814 0.753536
C 0.5226668 -0.53097653 0.60170823
C 0.9047094 -0.47409576 -0.8021559
C -0.1860006 0.3446066 -1.2720047
N -1.1285777 0.61665833 -0.3823396
H -0.32849512 0.69796854 -2.2879257
H -1.2746542 0.22707766 1.5889268
H 1.3517765 0.28233767 0.45021474
H 0.8721372 -1.2355547 1.3500404
