11

O 0.46216866 -1.094616 -2.3342903
C 0.8083882 -0.14805356 -1.6600766
C 0.26819128 0.1094861 -0.33558872
C 0.47241515 1.074064 0.6231233
N -0.31082562 0.8370419 1.7136743
C -0.9863972 -0.25834095 1.4259397
N -0.67592514 -0.7375176 0.20412898
H 1.562554 0.5801433 -2.0190697
H 1.1405483 1.9232767 0.5825142
H -1.7082067 -0.7349949 2.0745513
H -1.032911 -1.5504892 -0.2749065
