11

N 1.8852175 -0.49450767 -1.2961677
C 1.1853194 -0.1814656 -0.3662168
C 0.82515234 0.40683234 0.8279472
C -1.3551837 0.27211103 -0.28089967
C -0.56683844 0.3587378 0.9587461
O -0.7791015 -0.98359495 -0.46900016
H 1.5360953 0.47974694 1.6393404
H -1.0253754 0.2441827 1.9384497
H 1.8422986 -1.3720877 -1.7866944
H -2.4428413 0.23680079 -0.1285449
H -1.1047428 1.0332443 -1.0369598
