11

N -0.42204708 -1.6457155 -1.0653126
C -0.23154807 -0.4888062 -0.35616562
C 1.013592 -0.13545372 0.20311184
N 1.1610473 1.0129596 0.82388943
C 0.06372074 1.7888021 0.8713705
N -1.1226707 1.489724 0.36904272
N -1.2765182 0.3291046 -0.24821967
H 0.17665012 -2.4297311 -0.86357206
H -1.3882782 -1.8774754 -1.2402923
H 1.8770298 -0.7939736 0.13720441
H 0.1490223 2.7505653 1.3689432
