11

N 1.1181372 -1.4636561 0.4271765
C -0.66308963 -0.3567593 -0.7373789
C -0.85444534 2.1483948 0.18020359
N 0.05606864 1.8236217 0.88007337
C 0.45044562 -0.3003813 0.29383263
N 0.8229281 0.6811013 1.0632447
N -1.4851726 0.51809335 -1.0921422
H 0.9755763 -2.206371 -0.23437515
H 1.9312477 -1.4896482 1.0238404
H -1.6452619 1.9992324 -0.5860866
H -0.7064337 -1.3536274 -1.2183883
