10

N -1.3199272 -0.6403925 -1.1615652
C -1.2075586 -0.74913526 0.090983994
O -0.17833348 -0.21952942 0.7743312
C 0.7671831 0.4752119 -0.030658757
C 1.8202176 0.9794363 0.8550517
N 2.6747477 1.4015837 1.5076125
H -2.162821 -1.1050514 -1.4903096
H -1.8777157 -1.2560929 0.7891978
H 0.28715596 1.3087842 -0.553047
H 1.197052 -0.19481438 -0.7815962
