10

N 0.99105626 -0.799987 0.27317125
C 1.5275388 0.44430852 -0.2748971
O -1.1249626 -0.25336593 -0.35326514
C -0.24483298 -1.1484187 -0.027230212
C -0.6810434 1.125518 -0.059977986
N 0.6305742 1.3195615 -0.55670935
H -0.56630516 -2.1843727 -0.122349195
H -0.74930394 1.2185111 1.0331534
H 1.6385641 -1.4839052 0.6339026
H -1.4212853 1.7621502 -0.5457983
