10

N -0.68785363 -0.65033007 -0.9134481
C 0.34905615 1.0162281 0.87991357
O 0.32701108 -0.30268028 1.132122
C -0.23544905 -1.1332649 0.28495184
C 0.12648588 0.35008076 -1.5101786
N 0.73036295 1.2926451 -1.0800623
H -0.02313429 -2.1814523 0.47468477
H -0.63610786 1.4533083 0.75616413
H -1.0101048 -1.3693665 -1.5427165
H 1.0597336 1.5248318 1.5185692
