10

O -0.5705443 2.1813216 0.10116351
C -0.5461373 -0.25306273 0.66020626
C 0.19730414 -1.2558441 0.08163891
C -0.15127674 0.9075577 -0.05297952
N 0.9437208 -0.677665 -0.8790544
N 0.7467881 0.6523183 -0.9805832
H 0.24806446 -2.3163126 0.28145075
H -1.2116326 2.212205 0.8198157
H -1.2590492 -0.33637008 1.4691344
H 1.6027625 -1.1141485 -1.5007925
