10

O 0.023529014 0.3204083 2.0228083
C -0.025483346 0.118200555 0.68865484
C 0.8894028 -0.28621545 -0.2568606
C 0.14424422 -0.2776526 -1.4605882
N -1.1098862 0.09607512 -1.278273
N -1.1919343 0.33470222 0.05082432
H 0.91731477 0.13424438 2.3339121
H 1.9268866 -0.54628044 -0.104101606
H 0.48692167 -0.5341314 -2.4540179
H -2.0609953 0.6406494 0.45764223
