10

O 1.351148 0.042615287 0.90783525
C -0.33436581 -1.2577053 -0.3841301
C -0.09609063 -0.75736105 1.010337
C -0.20421897 0.65908754 0.70600057
N -0.6162131 0.8520926 -0.58004284
N -0.6450938 -0.35959154 -1.2648718
H -0.24270974 1.4759582 1.4202735
H -0.36105213 -2.2995782 -0.68603927
H -0.5320167 1.6945972 -1.1272781
H 1.6806129 -0.050114967 -0.0020841544
