11

O -0.8122945 2.1598825 -0.7010332
C -0.4205277 1.0857621 -0.31106406
C 0.3460251 -0.00033119254 -1.07723
C 0.54173607 -1.0873327 -0.056210473
C -0.016439483 -0.69429743 1.0906079
N -0.5878295 0.57966274 0.9649051
H 1.2840283 0.418302 -1.4611045
H -0.23944733 -0.31293023 -1.947736
H 1.0498526 -2.0234096 -0.23144826
H -0.07432939 -1.2090005 2.0405736
H -1.070774 1.0836928 1.6897401
