11

O -2.1876943 -0.89138865 0.95323485
C 0.37301257 -0.8694313 0.9983602
C -0.06979292 -0.5425879 -0.45402113
C -1.0410248 -0.7968336 0.6441207
C 0.14106543 0.855404 -0.92543095
N 0.61934906 1.7420671 -0.15346716
H -0.15852535 1.0408007 -1.9655536
H 0.66100925 2.6462421 -0.62013674
H 0.035664026 -1.3184897 -1.208186
H 0.806357 -0.02646945 1.5329344
H 0.82058007 -1.8393133 1.1981452
