11

O -2.54736114 0.00915196 -0.01020709
C 0.77164495 0.27545320 -0.96784683
C -0.08152946 -0.67672480 -0.20200068
C -1.41583712 -0.22667829 0.27854996
C -0.36381164 -0.32858202 1.28508647
N 1.20548394 1.34189416 -0.43367254
H 1.73695750 1.89416635 -1.10417965
H 0.97155507 -0.01856260 -2.00687154
H 0.01705895 -1.72506972 -0.47248666
H -0.39939470 -1.13793232 2.00937077
H 0.10523384 0.59288457 1.62425799
