10

O 1.64579633 0.75199253 -0.34028371
C 0.90489860 -0.02085501 0.50964893
C 0.81791181 -0.02085878 -1.25069840
C -0.42283669 -0.01590358 -0.54736220
O -1.37746459 -0.91560954 -0.84319131
C -0.39726426 0.63529044 0.79735695
H -1.08923002 -1.36403803 -1.65371593
H 1.31713722 -0.91952702 0.95410784
H -0.35193976 1.72067622 0.85257124
H -1.04700891 0.14883293 1.52156636
