11

O -0.1668683 1.407114 -1.8901678
C -0.7795971 -1.3608481 0.15858781
C -1.0992869 0.078230895 0.030291704
N -0.011586928 -0.06757588 1.0309248
C 1.0447758 0.4301367 0.10067191
C -0.09566879 0.76093084 -0.8865764
H -2.066976 0.495335 0.2977861
H -0.14645696 -1.1115971 1.4171367
H 0.0004041178 -1.649903 -0.5676915
H 1.525879 1.3354537 0.48109832
H 1.7953823 -0.3172773 -0.17206143
