11

O -2.2984478 -0.62310636 -0.42151585
C -1.155241 -0.3731625 -0.15988523
C 0.11413622 -1.2106054 0.0410184
N 0.7597076 -0.050309528 0.72988015
C 0.8580109 0.97993124 -0.28433737
C -0.4419398 0.8109701 0.41391957
H -0.059964333 -2.0393717 0.7329406
H 0.65397435 -1.5718642 -0.83974314
H 0.9608026 0.69438905 -1.330171
H 1.4556704 1.8359054 0.018552164
H -0.84670925 1.5472239 1.0993419
