11

O 0.29245198 -0.27256137 1.4431008
C 0.7127572 0.48910132 0.32297164
C 0.75825536 -0.23105031 -0.98745424
N -1.5141679 -0.22288674 0.079627186
C -0.48372915 0.5349199 -0.59274906
C -0.9825811 -0.6319709 1.1566226
H -1.4577197 -1.2556322 1.9070069
H -0.80456805 1.3925298 -1.1689539
H 1.3806262 0.21527474 -1.7565701
H 0.71627355 -1.3150631 -0.9909221
H 1.3824016 1.2973384 0.58732027
