11

O 0.9653649 -2.0447314 0.71980155
C 0.56897885 0.43199995 0.85004586
C 0.4485162 -1.0083094 0.41180906
N -0.5312952 0.77316916 -0.1146753
C -0.68300617 -0.6399279 -0.5734717
C 0.8467835 1.3809984 -0.28103265
H -1.3267567 1.3351673 0.15569252
H -0.52600265 -0.7467081 -1.6487521
H -1.6324856 -1.0932403 -0.27225447
H 1.3006493 0.8642711 -1.1365525
H 0.56925374 0.7473111 1.8893894
