10

O 0.03390529 -2.5517297 0.5175396
C -0.24026069 -1.9915167 -0.50902605
O -0.23176314 -0.6686278 -0.6980107
C 0.13596225 0.09465506 0.4618425
C 0.104206234 1.5124576 0.11197823
C 0.087443754 2.686547 -0.13854104
H -0.53583145 -2.4865952 -1.4456995
H -0.5627876 -0.121582955 1.2758734
H 1.1373756 -0.20499364 0.7901022
H 0.071749836 3.731387 -0.36605895
