10

O -0.060585495 0.3153836 -1.0159976
C 0.29616335 -0.32938763 0.13574535
O -0.8034397 -1.6162716 -1.9626858
C -0.59644926 -0.43916655 -2.019121
C 0.5558967 0.3936865 1.2831572
C 1.045322 1.3744549 1.9872292
H -0.78634703 0.21285552 -2.8788648
H 0.249083 -1.4131473 0.09174376
H -0.37394115 -0.29263225 1.56019
H 0.47429767 1.7942249 2.8186035
