12

N -1.38274871 -0.97843498 -0.16059178
C 0.21385377 0.41313391 -1.36849244
N -1.77735881 -1.40316717 1.03318145
C -0.35476892 -0.19257801 -0.17257822
C 1.33628231 0.93128552 0.50590485
C 1.28514888 1.12545729 -0.93471283
N 0.38947688 0.16837511 0.96649387
H -0.17260041 0.28930121 -2.37154950
H -2.42200881 -2.17172791 1.01871619
H -1.16163477 -1.26872711 1.82673156
H 2.07361945 1.36294461 1.17580608
H 1.97273920 1.72413766 -1.51890913
