9

N -0.117333636 -0.8474819 0.45197204
C 0.35904902 0.37728482 0.8582466
C 0.27285787 1.1779187 -0.24708323
N -0.24032715 0.48098993 -1.3112339
C -0.46303275 -0.72857875 -0.85903156
H -0.19573443 -1.6770108 1.0154788
H 0.7032215 0.55133975 1.8669447
H 0.55039495 2.218564 -0.3454861
H -0.8690954 -1.5530258 -1.4298075
