9

N -1.7194607 1.1932677 -1.1500012
C 0.88103485 -0.6755171 0.39194673
C -0.73864573 0.9329321 -0.4821039
N 0.18897407 -1.7071437 0.11616177
C 0.4056246 0.6898298 0.13849041
H 1.8846767 -0.7190918 0.83665025
H 0.7106945 -2.5478709 0.36088753
H 0.99834186 1.5402164 0.46153048
H -2.6112401 1.2933773 -0.67356205
