10

N 1.4310038 -0.23310542 -0.1407169
C 0.5438013 0.73848945 0.21252015
C -0.700271 0.16258286 0.0712838
O -1.940085 0.68100035 0.28236437
C -0.45046118 -1.154445 -0.3720462
N 0.84883106 -1.3777432 -0.49779078
H -1.1700399 -1.9307871 -0.5952229
H 0.8599932 1.7240164 0.52101284
H 2.4338598 -0.16350006 -0.16521822
H -1.856632 1.5534918 0.6838138
