11

C 0.37758228 0.5065852 -1.3903555
C 0.4081663 -0.07227089 0.8847357
O -1.7917545 -0.3959988 1.8031712
C -0.9534506 -0.7336661 1.0071304
O 0.9801628 -0.27632043 -0.37851954
H 0.49503514 1.5805347 -1.1845553
H 0.88289785 0.2633776 -2.3258407
H 0.324285 0.99244577 1.1507636
H 1.0725918 -0.55408573 1.6120797
H -1.1008959 -1.5929068 0.31818807
H -0.69462025 0.2823055 -1.4967978
