10

O -1.0339231 -1.1432914 0.0046564285
C -0.68591696 0.52940583 0.51424974
C -0.08451178 -0.9601726 -0.8192568
O 1.5433282 -0.020612473 0.08951782
C 0.43837047 0.38589153 -0.57829356
O -0.1732377 0.52559906 1.6930746
H 0.5106531 1.1816283 -1.3307059
H 0.8094413 0.27892765 1.4485244
H -1.6570605 1.0017277 0.3817268
H 0.33285713 -1.7791035 -1.4034935
