10

O 0.42404352 -1.37061815 0.33985479
C 1.15704827 -0.32747401 -0.26751176
C 0.29030371 -0.02554947 0.84509827
O 0.37026902 0.31423279 -1.23061416
C -0.60865230 0.65769820 -0.19119011
O -1.84917365 0.13672183 -0.43150204
H 0.42953584 0.14908288 1.90481763
H 2.22218222 -0.44949601 -0.42436239
H -1.73946165 -0.82631167 -0.44310132
H -0.69609494 1.74171335 -0.10148886
