11

O 0.735758 1.3839514 2.002948
C 0.12640937 0.17637776 -0.13431826
O -0.5789922 -0.49187887 1.7154443
C -0.0050684283 1.0523847 -1.3093573
C -0.70298594 -1.0037774 0.35802644
C 0.22394934 0.5467759 1.3365544
O 1.3024095 -0.07852552 -0.8904798
H -0.5643413 0.511827 -2.0864143
H 1.4322006 0.9118391 -1.3023691
H -1.7470804 -1.0300218 0.04611869
H -0.22225846 -1.9789522 0.26384705
