11

O 1.8117445 -1.5872672 0.5549611
C 0.7389225 -1.1387103 0.31259543
O -0.49126425 -1.7104478 0.45679396
C -1.1839645 -0.4905049 0.07431216
C 0.16079155 0.17692305 -0.19248605
C 0.74027723 1.1052493 -1.1811587
O 0.48206294 1.3636378 0.58395946
H 1.4192231 1.3320178 0.8388395
H -0.114768766 1.6944263 -1.5545211
H -1.8062667 -0.6551006 -0.80541736
H -1.7567576 -0.09022337 0.9121215
