9

N -0.3709654 1.0043173 1.7282025
C -0.14764372 -1.1498251 -0.97591347
C -0.10695852 0.41511637 -0.76232237
C -0.29434937 0.6877725 0.5562894
N 1.0648118 -0.44850668 -1.0433022
H 1.7130668 -0.5205479 -0.2487062
H -0.47452545 1.1009653 -1.516908
H -0.2569223 -1.7429725 -0.046910357
H -1.126514 0.65368086 2.3095706
