9

N -0.12988384 1.05860018 1.73073637
C -0.43959160 0.28066843 -0.70205520
C -0.30755727 0.64214422 0.60182205
C -0.08227589 -1.25114963 -0.85097519
N 0.79887081 -0.26167002 -1.31026567
H -1.19343799 0.75088611 -1.32294539
H -0.54776740 0.58647680 2.52714161
H 0.26045443 -1.74118050 0.08134348
H 1.64118893 -0.06477551 -0.75480188
