9

N 1.4107423 -0.7418085 1.2349061
C 0.35785055 -0.1598691 1.2337053
C -0.74692804 -0.15315405 0.31698158
C 0.22292978 0.0028248236 -0.81871265
N -1.0865715 0.63154984 -0.88428605
H -1.0402097 1.6417419 -0.75496155
H -1.3685474 -1.0382673 0.4385736
H 0.9610548 0.79599947 -0.688923
H 1.2896792 -0.9790171 -0.07728312
