10

C 0.4611785 0.10178337 -0.7239767
O -1.0155481 -1.7029128 -1.3567358
C -0.467502 -1.0072907 -0.54738337
O 0.17328419 1.0645949 -1.5828627
C -0.12395872 0.06576661 1.2971976
O -0.5360563 -1.1748298 0.8234231
H 0.46204314 -0.015816279 2.2150662
H 0.95995593 0.2775788 0.36490646
H -0.8916623 0.8361371 1.3110904
H 0.97826576 1.5549886 -1.800725
