10

C -0.61849295 -0.27309827 -0.95069725
O 0.30349896 0.77920775 -1.35887616
C 0.76768058 0.93538118 -0.08897259
O 1.65159614 1.63598940 0.29504864
C -0.22143726 -0.07378730 0.51064841
O 0.31671508 -1.21234537 1.11790116
H -1.64200701 -0.02342501 -1.22924361
H -0.99366163 0.41861203 1.11799493
H -0.31331148 -1.24018463 -1.35235032
H 0.74941974 -0.94634989 1.93854670
