10

C -0.9703776 -0.55328846 -0.33642337
O 0.8127746 2.1097946 -0.6159943
C 0.21404211 -0.09248196 0.51075816
O -0.94232565 0.69909745 -1.081252
C 0.17285582 1.1228548 -0.42603463
O 1.3344749 -0.92470515 0.42882374
H -1.9265158 -0.6837177 0.1698313
H -0.73481894 -1.3998667 -0.98259234
H 2.09428 -0.4520759 0.79043657
H -0.05438961 0.17438902 1.5424469
