9

N -0.025098503 0.6712547 -1.8425875
C 0.93911654 -0.85495824 0.9641412
O 0.38039714 -0.98716015 -0.23920864
C -0.3323262 0.099737264 -0.7687009
O 0.8596441 0.2966823 1.5266345
C -1.5533365 0.42783347 -0.048578963
N -2.5308375 0.6679869 0.5203199
H 1.4056867 -0.6274955 2.0927355
H 0.85675424 0.3061191 -2.204755
