11

N -0.8742151 0.98742765 -1.3431125
C -0.28073403 0.23803386 -0.312248
C 1.0147663 0.30175507 0.15551771
N 1.0771303 -0.55698884 1.2114247
N -0.07686688 -1.1733887 1.4541861
C -0.91010064 -0.69898415 0.53973436
H -1.5587991 0.4533734 -1.863508
H -0.19442151 1.3649316 -1.9867207
H 1.869605 0.8772699 -0.16795993
H 1.8707567 -0.7567323 1.7950864
H -1.9371208 -1.0366975 0.5175997
