11

N 0.67282856 -0.17838597 0.87617023
C 0.08299919 -1.35831971 0.46964172
O 0.14730659 -2.43496832 0.99469748
C 0.08339929 0.95045897 0.18923169
C -0.40692130 0.23958129 -1.07901967
O -0.60666782 -1.11586808 -0.67699650
H -1.35006554 0.63419765 -1.46065156
H 0.95669553 -0.12638719 1.84169141
H -0.74580406 1.39641923 0.75063964
H 0.81813064 1.72670993 -0.03596970
H 0.34809880 0.26656225 -1.86943529
