11

N -0.06670425 -1.6396161 0.1287441
C 0.2041221 -0.5777679 0.9332994
O 0.78994024 -0.62997687 1.9949223
C -0.2451871 0.74670434 0.36037245
C 0.25724545 1.1950657 -0.94170177
O -1.0676196 0.69906574 -0.7978127
H -0.73223364 -1.5251719 -0.6197654
H 0.12029849 -2.5638447 0.48607937
H -0.5245711 1.4882247 1.1069934
H 0.33447784 2.2614853 -1.1493793
H 0.93023145 0.54583174 -1.5017524
