10

C -0.94601227 -0.68228592 -0.39285544
C -0.05607111 0.29044193 0.21907300
C 1.34677840 0.08704590 -0.08255082
C 2.52001511 -0.05119053 -0.31086302
N -2.22567813 -0.57100121 -0.17128513
N -3.33365551 -0.46364079 0.02606913
N -0.50439482 1.23581583 0.95770387
H 0.26505546 1.81549569 1.29459330
H -0.63133601 -1.49392925 -1.03098396
H 3.56529883 -0.16675168 -0.50890103
