10

C -1.0900089 0.57088625 -0.027534422
C 0.8595599 -2.2922132 -0.67575735
C 0.5846739 -1.1778132 -0.31482735
C 0.29798082 0.17039633 0.1329134
N -1.4326272 1.7700484 0.35147116
N -1.7180468 2.812919 0.6816914
N 1.1702422 0.9646543 0.63152736
H 2.0836706 0.51054144 0.6632609
H -1.8681765 -0.047482945 -0.44832984
H 1.1127319 -3.2819366 -0.9944155
