11

C 1.0095268 -0.80915946 -1.1420617
C 0.21796365 -0.16259256 -0.0583907
C -0.8846645 0.6318199 -0.05085941
C -1.0919812 0.8822004 1.3312813
N -0.19751935 0.29367104 2.0752094
O 0.6327087 -0.3690343 1.2008553
H 1.0080177 -1.8986464 -1.0332359
H 0.5809408 -0.5561218 -2.113237
H 2.04973 -0.47043616 -1.1210939
H -1.4588236 0.9846936 -0.8927981
H -1.8658993 1.4736055 1.8043308
