12

C 0.30703586 0.44680548 0.3199687
N 0.20568325 -0.7573004 -0.24147363
C 1.2246841 0.5582444 1.466122
N -0.7002811 1.3117863 0.04975274
C -0.8820003 -0.9486207 -1.0753508
O 2.0231142 -0.3137692 1.7406096
H -1.104207 -2.0023344 -1.2620871
H 1.1193806 1.4951953 2.0377753
H -0.62520695 1.7508466 -0.86387044
H -0.86031526 -0.35046494 -1.9857026
H -1.4451591 0.3255851 -0.36642444
H 0.73727167 -1.5159733 0.1806808
