10

N 1.4551053 0.036116056 -0.5598889
C -1.7500913 1.4022281 -0.57132953
C -0.06516125 -1.0854473 1.04532
N -0.80846846 0.6471618 -0.3828059
C 0.18000434 -0.06508153 0.01260604
O -1.1289684 -1.2702887 1.5860976
H 0.8417751 -1.6777478 1.2945055
H 1.5383862 0.81401575 -1.1992166
H -2.4531176 1.1223227 -1.3617711
H 2.1905358 0.076720946 0.13648269
