10

N -0.82578444 0.8728361 1.3528271
C -0.17217152 0.17658043 0.35024902
C 0.35035974 -1.0675082 0.2121903
N 0.98718095 -1.1472007 -1.0260456
C 0.8123797 0.0092904195 -1.5514959
O 0.11403634 0.88090014 -0.7717115
H -1.5024507 1.5387442 1.00321
H -1.2315876 0.26916948 2.0524378
H 0.3296023 -1.9061912 0.8931289
H 1.1384354 0.3733793 -2.51479
