10

N -0.30438850 1.04561855 -0.18168490
C 0.08241831 -0.16764969 -0.04355340
C -0.22138462 -0.85626636 1.22185620
N 0.70366726 -0.88022552 -1.07803843
C -0.53954901 2.24427498 -0.16612387
O -0.77173341 -0.34229301 2.16591129
H -1.52813397 2.55516180 -0.51746423
H 1.52413024 -1.38503081 -0.76267787
H 0.11843128 -1.91449687 1.23281930
H 0.93654259 -0.29909311 -1.87104396
