11

O -0.5081789 1.3013407 -0.00420537
C 0.08320874 -0.9582625 0.28305876
N -0.30708098 -0.6550987 -1.1216294
C -0.07064964 0.4350278 1.0087446
C 0.32930696 0.43255594 -1.4754759
O 0.9482225 1.0834851 -2.2087898
H 1.1081507 -1.3379607 0.31892827
H -0.59423864 -1.728899 0.652262
H -1.0630015 0.27470168 -0.69109625
H 0.8857251 0.77211994 1.4246349
H -0.8114644 0.38098982 1.8135685
