11

O -2.0154064 0.98670954 1.3747402
C -1.0800301 0.61295015 0.7232253
N -0.9746491 -0.5516511 -0.013715845
C 0.40670043 -0.8064098 -0.35811764
C 0.94060844 0.6310749 -0.32416257
O 0.08047236 1.3119451 0.58890915
H -1.6044276 -1.2948606 0.23916617
H 0.9069828 -1.444166 0.38246405
H 0.5109848 -1.2618997 -1.3448672
H 0.86131847 1.1098663 -1.3048823
H 1.9674462 0.70644075 0.03724069
