9

O 1.6792707 0.93107927 0.60605574
C 0.5633329 0.3076196 0.19391045
N 0.42807397 -0.24566527 -0.9997063
N -0.81086004 -0.72669995 -0.95750624
N -1.478362 -0.5306181 0.15705745
C -0.6228264 0.13524567 0.92669713
H 2.3237076 0.89478505 -0.11279061
H -1.210485 -1.2178618 -1.7408098
H -0.8718518 0.4521156 1.9270921
