9

O -0.77436113 0.40101564 -1.7895105
C -0.1801969 0.11625594 -0.6278756
N 1.2246068 -0.7619928 0.7229192
N 0.45571825 0.1647114 1.4675121
N 0.7883366 -0.7963614 -0.51726943
C -0.44417757 0.67778 0.61436784
H 0.47681746 -1.051787 1.6858817
H -1.1860317 1.4031816 0.9116576
H -0.36071187 -0.15280314 -2.4676828
