11

O 1.7529585 -0.9168816 -1.8346438
C 0.7316282 -0.26695645 -1.9164636
N -0.03458254 0.08492646 -0.85417104
C 0.34054998 -0.32298988 0.49052572
C -0.5771116 0.2502624 1.4724196
C -1.3422446 0.7248189 2.2658556
H 0.3231564 0.10518782 -2.8751667
H -0.88088167 0.6180167 -0.98998535
H 0.33420867 -1.4184003 0.5629325
H 1.3673054 0.0010764806 0.69572634
H -2.0149868 1.1409394 2.9829707
