9

O 0.18478693 0.83695830 1.82187412
C 1.01971830 0.23901464 -0.41138186
N 0.48815464 -0.40562684 -1.44567939
N -0.71833477 -0.71966100 -1.03144722
N -1.04436637 -0.33864697 0.19903720
C 0.05439692 0.27556260 0.60872865
H 2.02351742 0.63269337 -0.43318561
H -1.36630645 -1.22467550 -1.61308957
H -0.64156646 0.70438148 2.30514364
