9

O -1.5099548 1.2804089 0.3666883
C 0.8225507 0.52855414 0.5569823
N 1.4863466 -0.5248044 0.09039393
N -0.6480254 -0.68090564 -0.6011899
N 0.5765026 -1.196239 -0.5783227
C -0.5079135 0.4211797 0.11864189
H -2.3077629 0.94431186 -0.062877744
H 1.2969463 1.2865022 1.1599206
H 0.79131037 -2.0590076 -1.0502366
