9

O 1.6793325 0.92806995 0.60527205
C 0.5634376 0.3065678 0.19400878
N 0.42811003 -0.24615401 -0.9999481
N -0.81012547 -0.7255873 -0.9565315
N -1.4809532 -0.52939427 0.15779567
C -0.6235672 0.13544878 0.9266233
H 2.3242764 0.8915922 -0.113324344
H -1.2097149 -1.2148362 -1.7409781
H -0.8707956 0.45429313 1.9270822
