9

O 0.10402565 -0.30422166 2.032329
C 0.85528433 -0.04512196 -0.2807048
N -1.3141441 0.10526898 0.1934488
N 0.092045225 0.19307661 -1.3824387
N -1.1971071 0.28024498 -1.0934292
C -0.08758013 -0.0948959 0.71941245
H 1.9263725 -0.15182331 -0.30251786
H -0.76764184 -0.2804139 2.4529843
H 0.38874555 0.29788613 -2.339084
