11

N -1.15631022 -0.41397684 2.05287753
C 0.27062748 0.52826876 -0.56014607
C 0.47198254 -0.66062212 0.26969286
N -0.62531981 -1.09381096 1.20367156
N -0.32017541 0.94413004 -1.70639372
C 1.04688176 0.68312576 0.48033770
H -1.12675168 0.42319232 -2.01338107
H -0.87471049 -2.09876760 1.04530479
H 1.04319050 -1.53246047 -0.06080816
H -0.40011070 1.94253819 -1.82577543
H 1.67069596 1.27838244 1.11462035
