11

N 2.1721551 1.4123784 -0.78957987
C 1.5915339 0.5456589 -0.29082248
C 0.9832986 -0.56110936 0.459988
C -1.0186312 -0.05532559 -1.2403085
C -1.2444438 0.45549017 0.14577533
O -0.42083934 -0.74151915 0.25459012
H 1.4469898 -1.4990585 0.14900178
H -2.147074 0.28904828 0.74063355
H 1.1527609 -0.40296736 1.5315366
H -1.8138639 -0.8009114 -1.4053142
H -0.701886 1.3583157 0.44449955
