11

N 0.32579058 2.9279528 0.45267534
C -0.20715801 1.911115 0.35233226
C -0.85376257 0.6009506 0.20473863
C 0.008296177 -0.35635227 -0.5972068
C 0.9145122 -1.2923791 0.06466653
O -0.33271465 -1.7204082 -0.46669748
H -1.823639 0.7375767 -0.28570938
H -1.0449494 0.1779682 1.1966436
H 0.23704454 -0.037501153 -1.6136492
H 1.7964058 -1.654954 -0.45982903
H 0.9801744 -1.2939692 1.1520356
