11

N 1.40638118 2.11597276 0.93875336
C 1.18915364 1.00562712 0.69994935
C -1.31289767 -0.05544796 -0.22491630
C -0.57860321 0.40470092 -1.44238380
C 1.00140803 -0.44300780 0.54243426
O -0.08222126 -0.83114371 -0.30694044
H -2.14764976 -0.76218086 -0.22066870
H -1.32167518 0.61425956 0.64117484
H -0.88892536 -0.28594852 -2.24377237
H 1.89685821 -0.87031393 0.08740788
H 0.83817144 -0.89251820 1.52896200
