10

C -0.21809483 -0.8459837 -0.68628186
C 0.63328016 -0.79314554 0.521173
N -0.8465626 -0.6682198 0.61523277
C -0.7394594 0.49845713 -0.31660372
C 0.42798516 1.2971712 0.18349974
N 1.2780845 0.50463146 0.7028921
H 0.5550054 2.3735225 0.12754712
H -0.51222813 -1.5954591 -1.4079143
H -1.6661857 0.89810914 -0.71048546
H 1.0881754 -1.6690835 0.97094077
