10

C -1.2191411 -0.38175282 -0.34880722
C -0.09147287 -0.8126982 -1.0431242
N 1.1350133 -0.43371662 -0.6982021
C 1.2190096 0.381202 0.34805247
C 0.09118632 0.81278294 1.043893
N -1.1364388 0.43329164 0.699826
H -2.2142515 -0.70291203 -0.647294
H -0.18193471 -1.4793221 -1.8978825
H 2.2137604 0.70390606 0.6458766
H 0.18426944 1.4792188 1.8976618
