10

C -0.94404834 -0.04544139 0.04696227
C 0.02399054 -0.54774858 -0.96624663
N 0.95665815 0.99660027 0.68833365
C 1.10393711 -0.28806194 0.00938483
C -0.30788913 1.14186353 0.70770650
N -0.02967078 -1.19459084 0.33729762
H -2.00478226 -0.26152579 0.00409880
H -0.07457413 -1.06755744 -1.90914902
H 2.09148620 -0.73131615 -0.05961181
H -0.81510728 1.99777800 1.14122364
