9

N 0.56743426 1.52528495 -1.53916310
C 0.50569619 0.45661082 -0.85983470
N -0.37384586 0.36713592 0.22798476
C -0.38466193 -0.71847750 0.88065071
O -1.19198076 -0.90934296 1.92334197
H -1.71236140 -0.09610333 2.02907681
H 1.24490393 1.41821667 -2.28881588
H 0.22960763 -1.60510086 0.69636130
H 1.11520787 -0.43822355 -1.06960173
