10

O 1.4475539 -1.2717917 0.86959535
C 0.54595196 -0.45471203 0.31997672
C 0.88338315 0.89492303 0.08451462
N 0.007882889 1.713148 -0.45387372
N -1.2059278 1.259555 -0.77814525
C -1.4677229 -0.01336159 -0.5353535
N -0.6403363 -0.92013836 0.008685881
H 1.0301193 -2.1438663 0.95304644
H 1.8597286 1.2951183 0.3367543
H -2.4606323 -0.35887432 -0.80520093
