10

O -1.458867 0.8366336 -1.2134194
C 0.05583404 -0.9876046 -0.89718944
C -0.5654075 0.2250558 -0.41560993
N -0.24071096 0.6762324 0.74391127
N 2.187182 -0.96678257 0.24287325
C 0.6572052 0.815468 1.6399326
N 1.2595632 -1.1156644 -0.39894816
H 0.23739953 0.6027701 2.6380332
H -0.356935 -1.7220186 -1.5695304
H -1.7752633 1.6359104 -0.7700529
