11

C -1.7592766 -0.49722436 -0.11456405
N 1.6894637 0.44105583 0.06790802
C 0.2730951 0.13799085 0.0871735
C -0.9519821 0.3716431 0.6593114
N -1.0669138 -1.1685956 -1.046837
N 0.18644845 -0.7600535 -0.9037612
H 1.9348179 1.3911828 -0.19777644
H 2.2120898 0.15312505 0.89209014
H -1.2396742 1.0275402 1.4677775
H -2.8260849 -0.65520144 -0.021508738
H 1.5480163 -0.44146308 -0.88981324
