11

C -0.14544596 -0.31744274 1.0309426
N -0.28501844 -1.6689754 -0.7912325
C 0.16226104 0.43029523 -0.085378446
C -0.40469852 -1.6099733 0.51938325
N 0.5780888 1.7506744 -0.24975975
N 0.0620889 -0.41057667 -1.1424012
H 0.29079646 -0.21377748 -2.102844
H 0.57094157 2.252932 0.6291765
H -0.68465406 -2.497337 1.0720654
H 0.039429817 2.2638502 -0.9357227
H -0.1837895 0.020331182 2.0557714
