10

N -1.9007541 -1.5181639 -0.3488728
C -0.19145377 0.35319588 -0.89978874
O 1.6274666 1.5726501 -0.053564135
C 0.7629743 0.7383468 0.15728125
C -1.0948311 -0.67793643 -0.7182334
N 0.6193092 0.10555632 1.3677812
H -0.24347372 -0.36284292 1.6002337
H -0.06999608 0.7831981 -1.8845675
H 1.1471311 0.5002416 2.1318424
H -0.6563723 -1.4942455 -1.3521117
