10

N -1.3563657 0.72012633 0.14409311
C 0.7795852 -1.1070161 -0.11128762
O 0.19116135 2.38761 0.15034325
C -0.07547861 1.2009233 0.10560959
C 0.9989516 0.18908694 -0.04960959
N 0.5784612 -2.3059905 -0.03673016
H 0.45077452 -2.8002472 -0.9148406
H 2.0143983 0.5640997 -0.11346841
H -2.0581331 1.3917158 0.41453132
H -1.523355 -0.24030851 0.41135913
