10

N -1.2269511 -0.71119976 -0.2900325
C -0.62762374 -0.004480145 0.6976292
O -1.1212919 0.20719686 1.7831655
C 0.7662511 0.55767554 0.37932155
C 1.3043139 0.19354875 -0.9299568
N 1.6813778 -0.12421193 -1.9750347
H -2.1406474 -1.0985782 -0.1111634
H -0.78808373 -0.8819904 -1.1809635
H 0.70803106 1.6469915 0.4620143
H 1.444624 0.21504784 1.1650205
