10

N -1.2271084 -0.7086932 -0.2963397
C -0.6289637 -0.005369986 0.693873
O -1.1208736 0.20652443 1.7814609
C 0.76398385 0.5581618 0.38059387
C 1.3068326 0.1952026 -0.9265967
N 1.685455 -0.121326365 -1.9701108
H -2.14049 -1.097022 -0.11385981
H -0.78432626 -0.8898843 -1.1814773
H 0.70482576 1.6463375 0.464128
H 1.440665 0.2160697 1.1683288
