11

O -1.398207 1.014506 0.04223317
C 0.9085924 -0.29302534 0.7566834
C 1.0178833 0.48072624 -0.5369984
C -0.32150823 -0.9053316 0.73598826
C -0.49716046 0.28036633 -0.5459863
N -0.77850986 -1.07516 -0.69169784
H 1.3152298 1.5178397 -0.38259724
H -1.3556404 0.1385968 0.97612005
H 1.3636812 0.021705506 1.6916697
H 1.5325912 0.020406455 -1.3811854
H -1.7869524 -1.20063 -0.66422933
