11

O 0.0005345248 1.351397 -1.2631956
C 1.0849059 0.08478039 -0.91284794
C -1.4103537 -0.22206692 0.38979688
C 1.01742 -0.08281209 0.44606847
N -1.4394331 -0.39759952 -0.8915745
C -0.29592746 0.122175194 -1.4981902
N -0.24160367 -0.06131667 1.069936
H -0.26269144 -0.12492549 2.0778077
H 1.8529168 -0.3869762 1.0653213
H 1.9958501 0.03725457 -1.4936254
H -2.3016176 -0.31991047 1.0105035
