11

O 1.10375365 -1.25395104 0.95833018
C -1.15494922 0.62672609 0.60890930
C 0.76286746 0.24862037 -0.84673772
C 1.36833089 -0.86208790 -0.17674689
N -0.21926826 0.98524480 -0.24765303
C -1.76128856 -1.82510375 0.83655568
N -1.51393245 -0.66476546 0.76122134
H -0.23124960 1.97288462 -0.47809107
H 1.20591699 0.69189405 -1.73062152
H 2.18416437 -1.32288291 -0.76760138
H -1.74434529 1.40342124 1.08243487
