11

O 0.34412143 1.1098546 2.0804944
C 0.20325828 0.48923907 1.0552005
C -0.9505874 -0.41725966 -0.5238175
N 0.32831222 -0.0015981601 -1.2802938
C -0.17138912 0.9576991 -0.2985581
C -0.27453437 -0.94634485 0.77317333
H -0.97125024 -1.267861 1.5525088
H 0.13823535 0.2398141 -2.2451777
H 1.2444524 -0.41641337 -1.1266367
H -0.37792146 1.9732385 -0.61838293
H 0.4873029 -1.7203681 0.6314898
