11

O 1.8136164 -1.2541156 0.85217714
C 0.586753 0.0016726385 -0.9385851
C 0.14060275 1.3899224 -0.71228874
N -0.85695523 0.0010393063 -0.56002885
C 0.87140346 -0.686327 0.38434482
C -0.5996408 -0.51275307 0.8160198
H -1.2333606 1.0031062 -0.8739982
H -1.084685 -1.4779524 0.9925437
H 0.28485957 1.7088403 0.33088768
H 0.92697066 -0.364401 -1.9038485
H -0.849564 0.19096793 1.6127766
