11

O -2.2966805 -0.62092173 -0.42668122
C -1.154385 -0.37414256 -0.16027182
C 0.113785654 -1.2129033 0.04121554
N 0.7580095 -0.051069357 0.7271744
C 0.85711485 0.98125905 -0.2841548
C -0.44217882 0.8111884 0.41302183
H -0.058479667 -2.039872 0.73639697
H 0.65292335 -1.5777676 -0.8381048
H 0.96071285 0.69827485 -1.3293521
H 1.4532052 1.8373287 0.021669727
H -0.84402764 1.5486255 1.0990864
