14

C 1.18040101 -0.70111917 -1.72043473
N 1.74136548 0.12085005 0.70091337
C 0.51779244 0.17426188 0.34513000
O 0.13077593 -0.25126524 -0.86865837
N -0.55471229 0.66879209 1.05967139
C -1.93086280 0.34549876 0.72318987
H 1.89971057 0.10254267 -1.90507449
H 0.68994567 -0.99682863 -2.64899189
H 1.86920792 0.48024102 1.64025570
H 1.70947570 -1.54835590 -1.27768816
H -0.36639898 0.76730815 2.04474284
H -2.17602402 -0.71330245 0.87589011
H -2.58647157 0.95578494 1.35113303
H -2.12420521 0.59559217 -0.32007816
