14

C 2.122068 -0.16656668 -1.1976372
N 1.1229277 -0.5411778 -0.21306385
C -0.034780063 0.20755644 -0.117096454
O -0.19098178 1.2722371 -0.68820083
N -0.9989994 -0.36856976 0.6880886
C -2.1560793 0.42553118 1.064629
H 1.840311 -0.44871423 -2.220272
H 3.0707736 -0.64437354 -0.9428721
H 2.2522187 0.9157981 -1.1684055
H 1.021559 -1.5343829 -0.053401645
H -0.6565117 -0.99987507 1.3996674
H -2.9262393 -0.23580101 1.4669523
H -1.921674 1.1974387 1.8083104
H -2.5445926 0.9208998 0.17330238
