12

C -1.1226642 -1.0131027 -1.6987281
N -0.99844134 -0.58954805 -0.320357
C 0.056956973 0.020442171 0.00988321
N 0.24352966 0.4692104 1.3106408
C 1.3545147 1.1477418 1.7466868
O 1.5038311 1.5414704 2.8783472
H -2.00107 -0.5336133 -2.143379
H -0.24619746 -0.78290814 -2.3239114
H -1.2986449 -2.09346 -1.7288103
H 0.89580536 0.24873836 -0.6623191
H -0.49320304 0.28787747 1.9824748
H 2.105583 1.2971518 0.9494731
