10

C 0.23721696 -0.49775675 -2.494328
C -0.6008259 0.9541216 0.7998444
C 0.15896422 -0.31261554 -1.3099449
C 0.06928578 -0.057236455 0.09518595
N 0.360114 -1.0677638 1.0938957
N -0.6747836 0.5995568 2.0773087
N -0.05960365 -0.56986195 2.2379105
H 1.221366 -0.25265118 0.62213576
H -1.0125836 1.8812314 0.42481074
H 0.30084968 -0.6770241 -3.5468183
