10

C 0.5945709 1.3848549 -0.584885
O -0.4030714 0.38309336 -0.38874853
C -0.027692355 -0.6248536 0.43262318
O 1.052391 -0.7141718 0.96466446
N -1.0628412 -1.5014812 0.5852959
H 0.85132116 1.866716 0.36322734
H 0.14698805 2.10761 -1.2686864
H 1.4985358 0.9534742 -1.0235671
H -1.8251177 -1.4647441 -0.07140235
H -0.8250844 -2.390498 0.99147856
