10

C 0.04827812 0.30148303 -0.39949654
O 0.56423316 1.24789338 -1.22785825
C 0.67765008 -0.17882686 0.67603330
O -0.00908356 -1.01177039 1.56033233
N -1.19768640 -0.13017028 -0.83603488
H 1.69145336 0.11484308 0.93946952
H -1.76740319 0.62810916 -1.18993622
H 1.36321439 1.60481654 -0.81968546
H -1.66306380 -0.65808364 -0.11020912
H 0.29240768 -1.91829426 1.40738539
