11

C 1.927024 -0.6711557 0.31868982
C -2.46508 0.48827222 -1.1867865
C -1.2193632 0.31802356 -0.43874708
C -0.1937533 0.16699488 0.15888748
O 0.89531964 0.050694384 0.8964494
N 2.8851497 -0.6457636 1.2371027
H 3.7533534 -1.1141115 1.0312113
H -3.1139255 -0.38286006 -1.051188
H -3.005921 1.3782842 -0.85022366
H -2.2525597 0.59629744 -2.2556243
H 2.7897568 -0.18467575 2.140229
