11

C -0.57711851 -0.31374682 -2.70036840
C -0.13360310 -0.21913389 -1.30943332
C 0.21272727 -0.13193410 -0.16737208
C -0.17005108 0.48336566 2.00071843
O 0.68499443 -0.07477496 1.06441517
N 0.52030087 0.42866807 3.13321753
H -0.04414975 -1.11062467 -3.22841655
H -1.65003694 -0.52919659 -2.74130752
H -0.39536464 0.63015390 -3.22408190
H 1.46504614 0.05428277 3.20126855
H 0.08725514 0.78294057 3.97135898
