11

C -1.57905874 -0.20031346 -0.84367674
C 0.88797965 -0.45365810 0.49216492
N -0.34161525 -0.53718798 1.40636658
C 1.67258147 0.80971737 0.56663178
C -0.52978963 -0.38277261 0.17990120
O 1.16613105 1.89271342 0.74231915
H -1.46103279 -0.95291423 -1.62865118
H 1.44963474 -1.37548665 0.35013508
H -1.46091235 0.78635680 -1.29995924
H 2.76838486 0.69642008 0.43183740
H -2.57230318 -0.28287456 -0.39706878
