10

O -0.838898 -1.2641876 0.1695693
C 1.3721519 -0.49352872 -0.105029225
C -0.41469938 0.9408777 0.7889956
C -0.039572164 -0.20340177 -0.89117634
O -0.6241295 1.0153486 -0.6485956
C 0.1420482 -0.5015936 0.6164905
H 1.5535817 -1.5155315 -0.48394486
H 0.32799712 1.6659832 1.1170522
H -1.3729002 1.0164404 1.303546
H -0.10557944 -0.6604066 -1.8669072
