10

O -0.61477768 0.76714865 -0.13407485
C 1.45303646 -0.33359675 -0.29300744
C 2.58912436 -0.25665171 -0.66402880
C -1.89947987 0.77757428 0.24182031
O -2.46515356 -0.12865898 0.79170932
C 0.07701508 -0.45796506 0.16755767
H -0.42786922 -1.29385853 -0.32833285
H 3.59926365 -0.17830145 -0.99923718
H -2.35142567 1.74239802 -0.02919013
H 0.04026640 -0.63808832 1.24678411
