12

O -0.5435765 0.61690223 -1.6978028
C 0.18761571 1.1720757 -0.63279724
C 0.3637329 0.16127424 0.48744965
C -0.7131096 -0.78753585 0.8350545
N 0.42089847 -1.2216337 0.015292832
H -0.23371203 -0.29956248 -1.7647656
H -0.36315262 2.0476587 -0.27082217
H 1.1824788 1.5128373 -0.9621446
H 1.0470338 0.45379052 1.2824829
H -1.6571095 -0.73417217 0.30273375
H -0.7743157 -1.1424693 1.8623492
H 1.0832164 -1.7791655 0.54296964
