12

O 0.96565396 0.538286 1.4866384
C 0.39016184 0.7507043 -1.092602
C 0.45921555 -0.7295581 -1.0143621
C -0.33892468 0.1405172 1.2756908
N -0.5488054 -0.06129116 -0.17375435
H -1.071826 0.902228 1.5826347
H -0.00807525 -1.410189 -1.7350868
H 1.1814078 1.0464566 0.6669316
H -1.5166439 -0.24955055 -0.4255145
H 1.2593845 -1.1917113 -0.43696645
H -0.5400134 -0.799767 1.8051816
H -0.23153515 1.0638753 -1.9387912
