12

O 0.46329190 0.45748397 1.73447463
C 0.81093722 0.68610250 -0.88385882
C 0.69223709 -0.79153503 -0.81629931
C -0.72967849 0.19756181 1.09111901
N -0.46212254 -0.00537027 -0.34863797
H 0.42388520 -1.43063064 -1.66518521
H -1.43779430 1.03819836 1.14997852
H 0.54554973 1.04932581 -1.88298729
H 0.99379018 0.92571642 1.04452082
H -1.30391211 -0.09361131 -0.91356272
H -1.19511480 -0.70676368 1.50403065
H 1.19893107 -1.32647824 -0.01359224
