12

O -0.2887103 -1.7736996 0.90331036
C -0.9571231 -0.8085659 0.20473377
C 0.09713943 0.19115229 -1.216143
C 1.2396913 0.63483346 -0.40640116
N 0.10236155 0.5952361 0.48110607
H 1.6131958 1.6529083 -0.5301392
H 0.12683187 -1.3507706 1.6650536
H -0.42875552 1.064532 -1.6360215
H -1.4103508 -1.3055403 -0.64951324
H -0.36823246 1.4901888 0.5724232
H 2.0250907 -0.08459857 -0.1672089
H -1.7511383 -0.3056762 0.77879995
