11

O -1.58747991 0.30639612 0.81361762
C -0.26524457 0.49452206 0.40154986
C 0.76695274 -0.63326813 0.58352390
C 0.10021735 0.37048674 -1.08791898
O 1.20004318 -0.49881173 -0.77804144
H 0.42327255 1.27497738 -1.61525789
H 0.05408191 1.44108160 0.84412916
H -1.90863005 -0.52892871 0.44807932
H 1.58498912 -0.47311768 1.29481680
H -0.67426344 -0.13908942 -1.68249154
H 0.30606127 -1.61424836 0.77799349
