9

O -1.1194464 0.36587736 -1.0516089
C 0.07408664 -0.09181743 -0.51415116
C 0.48632935 0.7409951 0.702902
O -0.22947784 1.6253211 1.0987303
C -0.0030005653 -1.5049413 -0.06563417
N -0.052919522 -2.5930793 0.31534162
H -1.4800245 0.9991622 -0.4068105
H 0.8777572 -0.02569717 -1.2614403
H 1.4466957 0.4841798 1.1826711
