10

O 0.54125214 -0.36211786 0.8460695
C 0.8934181 0.40682375 1.918374
C 0.1718408 0.29126933 -0.2964964
O 0.8807417 1.6027858 1.9475776
C -0.64526004 -1.3541157 -2.1711812
C -0.44479522 -0.4025243 -1.3133917
H 0.3065109 1.3682449 -0.294149
H -1.6492316 -1.6896614 -2.4256144
H 1.2011973 -0.25621086 2.733853
H -1.2556742 0.39550623 -0.94504184
