11

N 0.29279184 0.3067681 2.0014713
C 0.11376965 0.10356073 0.7633558
C -0.633575 0.845204 -0.34127092
N -0.42631358 0.08374268 -1.5751784
C 0.2930593 -0.9164548 -1.2475672
N 0.6467928 -0.99220645 0.088143975
H -0.17259741 1.1623641 2.2998645
H -1.7043821 0.9153164 -0.11616616
H -0.25707683 1.8674009 -0.46093878
H 0.6278592 -1.6829964 -1.9404932
H 1.2196721 -1.6926994 0.52877915
