11

N -1.0502577 0.20905605 0.34511232
C -0.8030521 -1.0744668 0.66678745
C 0.040855598 0.80075014 -0.35634738
N -0.049355976 2.0147483 -0.7599764
C 0.99128044 -0.2761911 -0.3757718
N 0.37621462 -1.4732641 0.2210862
H 0.79774976 2.2795198 -1.253726
H 1.2510546 -1.0792141 0.81153136
H 1.8282989 -0.4223448 -1.0388036
H -1.4750078 -1.6927543 1.2444187
H -1.9077804 0.71416086 0.49568906
