11

N -1.7935094 -0.27392688 -0.9422398
C -0.6860517 -0.11463931 -0.34946758
C 0.43315083 0.91838485 -0.4479007
N -0.2230085 -0.9751613 0.6434062
C 1.017583 -0.53706694 1.0763572
N 1.4632345 0.5173841 0.5136766
H 0.066221654 1.9227353 -0.20686343
H 1.5455174 -1.0857122 1.8512701
H -0.73007333 -1.7877318 0.9553518
H 0.8541442 0.95805585 -1.4590863
H -1.9472088 0.45767808 -1.6345041
