12

N 1.6828077 0.30883136 0.17041539
C -0.33183214 -1.125911 -0.0067526526
C -0.7047399 0.97003144 -0.13546167
O -1.0691636 -0.51457727 1.0264553
C 0.45504457 0.09439854 -0.5484429
N -1.7431554 1.5625646 -0.1194161
H 0.62574816 0.1387902 -1.6293223
H -0.9642098 -1.5789257 -0.78630227
H -1.9340173 0.5539796 0.5447342
H 1.5026273 0.26411605 1.1673256
H 0.3765155 -1.8776942 0.36656982
H 2.1043751 1.2043966 -0.049802106
