12

N 0.41389906 -1.9924765 -0.75591445
C 0.02079671 0.12465275 0.64182836
C 0.4919725 -0.76630104 -0.49961075
O 1.0012326 0.2748051 -1.2366418
C 0.4975883 1.2550875 -0.2846014
N -1.3612425 0.14261112 1.0502495
H 0.81869423 -2.2149045 -1.666294
H -1.5615572 -0.66013825 1.6341294
H -1.9701848 0.07871974 0.23911427
H -0.308738 1.8464775 -0.7262622
H 1.3000116 1.8990194 0.0802948
H 0.6575275 0.012447091 1.5237083
