11

N 1.9396534 0.2563951 -0.6542621
C 0.74486536 0.08121983 -0.23696575
C -0.42221728 0.99256665 -0.5941087
N -1.6150126 0.45696074 0.05791014
N -1.1680499 -0.57637984 0.6843802
C 0.12404193 -0.9105163 0.6181308
H -1.8468722 -1.1079526 1.2199626
H -0.5839311 1.0333914 -1.6778417
H 2.5574262 -0.46996954 -0.29449573
H 0.5155796 -1.7744625 1.1275003
H -0.2454832 2.0187469 -0.25021002
