10

O -0.069457375 0.81166136 -0.876781
C -1.0113529 0.3664976 0.068935804
C 1.1632408 0.2420304 -0.52219653
O -0.8955976 -1.7267674 1.3437235
C -0.39808425 -0.9009353 0.6397941
O 0.8841571 -0.9458711 0.20790823
H -1.175329 1.0942931 0.8761088
H 1.7133073 -0.011650774 -1.4297676
H -1.9640381 0.15850666 -0.42577186
H 1.7531544 0.91223544 0.11804657
