9

O -2.5755765 0.6789198 0.292938
C -1.6336876 0.0994347 0.7622482
C -0.29926568 0.04235603 0.09517674
N 0.76112634 -0.550518 0.5458989
C 1.661931 -0.27997044 -0.45502687
N 1.1844668 0.42330703 -1.4393646
O -0.12650992 0.64408356 -1.0788425
H -1.6616898 -0.44031912 1.7236555
H 2.6892052 -0.61729366 -0.4466835
