9

O -0.12263098 -1.0162169 1.1060328
C -0.15724206 -0.0024151749 -1.0717263
C 0.43591315 1.1554129 0.76742506
N 0.22481665 1.1311781 -0.60898876
C -0.36678684 -1.1911576 -0.23083562
N 0.29443473 0.2021083 1.6112784
O -0.72374487 -2.2638717 -0.6306094
H -0.34363845 -0.11302799 -2.1370873
H 0.75887865 2.0979898 1.1945112
