9

O -1.36714806 0.28944826 0.97895339
C -0.57293114 -0.38675205 0.05596388
C 0.87166881 -0.17206339 0.27541427
C 2.03290153 0.02847567 0.49790075
C -1.20847560 0.29121520 -2.38295704
N -0.90623575 -0.02500471 -1.29370932
H -0.81794969 -1.44438394 0.18046803
H -1.10158263 1.21909112 0.99588325
H 3.06975243 0.19997390 0.69208305
