9

O 1.338954 -0.7764091 -0.7210541
C -0.26067895 1.0028981 -1.4959213
C -0.48520118 0.5073425 1.9566875
C -0.26058295 0.08317232 0.8561566
C 0.040109504 -0.49279618 -0.44954655
N -1.0053822 0.16223504 -1.903634
H -0.68707925 0.8885237 2.9351788
H -0.5461815 -1.3937792 -0.61475027
H 1.8660425 0.018812781 -0.5631165
