11

C -1.305743 -0.7895743 0.6802309
N -0.12686154 -0.05314609 0.26629928
C 0.39692387 0.09966327 -0.97223485
C 1.486189 0.9058694 -0.76871043
N 1.5673378 1.1955895 0.55583274
N 0.5929207 0.6166883 1.1752913
H -1.3637681 -0.7097091 1.766386
H -2.20237 -0.3558635 0.23251994
H -1.2192748 -1.8390222 0.39386287
H -0.029346801 -0.35921967 -1.8509156
H 2.203993 1.2887241 -1.478562
