10

C 0.3857255 2.0529075 1.4994394
C 0.18260385 1.092052 0.8046042
C -0.058024485 -0.04233867 -0.01915603
C -1.205257 -0.7217715 -0.37297818
N -0.8700116 -1.7425376 -1.1996197
N 0.41476288 -1.738213 -1.3800658
N 0.9135333 -0.7234876 -0.67755175
H 0.5572062 2.906165 2.1179247
H -2.227432 -0.5324472 -0.083569884
H 1.9068935 -0.5503288 -0.689027
