10

C 0.0005312159 1.0577679 0.68072677
C 0.44426528 2.075204 1.1322869
C 0.5364285 -1.2236053 -0.1868946
C -0.5081406 -0.19849294 0.13452064
N -1.1446781 -0.04640604 -1.1863297
N -0.6226541 -0.8158549 -2.0007672
N 0.47024357 -1.585727 -1.4053465
H 0.8315686 2.988534 1.5281521
H 1.2653726 -1.6292264 0.504534
H -1.2729368 -0.6221935 0.79911757
