14

C -1.8790208 -0.101449035 -0.5980066
N 1.5733105 -0.53608817 0.52650636
C 2.0400035 0.83533823 0.6188774
O -0.074864574 -2.0143652 0.06216172
N -0.5804047 0.17362377 -0.19464728
C 0.37936324 -0.7502907 0.15441458
N -2.6593146 0.8521657 -0.8923509
H -0.34558934 1.1536676 -0.15963517
H 0.67991275 -2.563964 0.3233953
H 3.078965 0.8339606 0.959937
H 1.4587462 1.4306091 1.3388888
H -2.11292 -1.1670996 -0.6226391
H 2.011604 1.3554753 -0.35083288
H -3.5697913 0.49841613 -1.1660691
