14

C -2.3949246 -0.07506274 0.97133654
N -1.3513504 0.14032029 -0.012803749
C -0.033575695 0.036776766 0.3469341
O 0.35284063 -0.07861236 1.4947236
N 0.8427623 0.104029626 -0.73435503
C 2.2161918 0.0023239492 -0.59282553
N 2.965105 0.10978552 -1.6138833
H -2.03822 0.2932105 1.933684
H -2.6530313 -1.1360326 1.0795497
H -3.2880917 0.4823034 0.6799219
H -1.591147 -0.019956563 -0.9787816
H 0.51687175 0.30450368 -1.6706961
H 2.5179415 -0.17263728 0.44053912
H 3.9386275 0.00904784 -1.3433439
