14

C 1.7659721 -0.8731078 -0.94756335
N -0.7900779 0.25582045 1.3839631
C -0.14193042 0.02785684 0.28130388
O -0.6702969 0.4566875 -0.77888554
N 2.869499 -1.4992622 -0.91351444
C -2.255622 1.2161548 0.27176195
N 1.0738462 -0.64192885 0.22161046
H -0.42865172 -0.022937851 2.2883234
H 1.257395 -0.46600708 -1.8243736
H -2.6776903 1.0675516 -0.7151133
H -2.889258 0.83927464 1.0667287
H 3.2506769 -1.5751002 -1.8528506
H -1.8589963 2.206762 0.44856006
H 1.4951341 -0.9917645 1.070049
