10

N 2.7654 -1.4733967 0.13373217
C 1.8624027 -0.6037184 0.13386403
O -0.46670324 -0.6684838 0.50323445
C -1.5861086 -0.06874414 0.046959296
C 0.70245945 0.056855608 0.39873528
N -1.5912062 1.0679456 -0.5038097
H 2.6672068 -0.04179778 -0.4617344
H -2.4370112 -0.7275384 0.23826875
H 0.6205308 1.1288065 0.27645394
H -2.5369704 1.3300714 -0.7657039
