10

N -0.19277942 1.43480700 2.72235552
C -0.17525485 0.95679269 1.59076115
O 0.14212562 -0.83820588 0.13411738
C -0.03464990 0.52154169 0.36268319
C 0.29804950 -1.20944164 -1.14923090
N 0.28988877 -0.40163598 -2.11672508
H 0.42805511 -2.29360065 -1.18851665
H -1.11629984 1.53999070 3.13358539
H 0.42285989 -0.89304223 -2.99539768
H -0.06199486 1.18279435 -0.49363280
