10

N 0.915348 -1.8996437 -0.52854836
C 0.20934555 0.560117 0.21723013
O -0.75857896 -0.40503755 -0.035760395
C -0.15837009 1.7584711 0.5994883
C -0.30675814 -1.6165531 -0.40616432
N -0.4361192 2.8575275 1.0730293
H 1.247756 0.2892576 0.0771629
H -1.162368 -2.2757797 -0.57108146
H -0.5827052 3.597744 0.39210665
H 1.0324498 -2.8661025 -0.81746274
