11

N 0.8769884 -0.8186984 0.6085494
C 1.2415494 1.29588 -0.34431863
C -0.30984935 -0.54551804 0.026185831
N 1.4488215 -0.0056243646 -0.4730337
C -0.36169264 0.6414529 0.8766382
N 0.34065977 1.7268108 0.53881013
N -1.1916709 -1.4065173 -0.4701149
H 1.8169107 1.972352 -0.9693021
H -1.9667748 -1.079583 -1.0249604
H -0.9733128 0.5964831 1.7738537
H -0.92162937 -2.3770378 -0.5423074
