12

N 2.1658566 0.39097783 -0.6970044
C 0.8844382 0.16559389 -0.281723
N 0.7055957 -0.8413024 0.58725524
C -0.54063845 -1.0234942 1.0071876
C -1.6076497 -0.23881257 0.5855691
C -1.2912401 0.7649181 -0.32259893
N -0.060447797 0.9820549 -0.7693268
H 2.2898276 0.96267074 -1.5175418
H 2.8312457 -0.3441569 -0.52525175
H -0.69245416 -1.8397547 1.7121862
H -2.6195579 -0.4024409 0.9372236
H -2.0649757 1.4237461 -0.71597517
