10

O 0.7334692 1.3660461 0.48242223
C -0.1789241 -0.43848372 -0.14768888
C -0.045921333 0.9756547 -0.72751105
O 1.1918275 -0.54620945 1.7792598
C 0.51544034 0.14058812 0.9477942
O -1.4076968 -1.0871613 -0.06640867
H 0.9321505 -1.2005022 0.68721133
H 0.58132106 1.1423589 -1.6050315
H -0.97816217 1.5428866 -0.7656685
H -1.3435042 -1.8951778 -0.584379
