10

N 1.1772273 -1.025703 0.6484979
C -0.6527761 -0.5776664 -0.67464066
O -0.7354593 1.5733275 -0.7165301
C 0.2731167 -0.0893671 0.35781324
C 0.074785486 1.294068 0.3373948
N -1.1835439 0.50378245 -1.3623749
H 0.38977072 -1.4490376 -0.600016
H 1.5639036 -1.0587912 1.5842575
H 0.49861968 2.152265 0.83389944
H -1.4056439 -1.3228781 -0.40830144
