10

N -1.3182936 -0.64244443 -1.1605638
C -1.2060755 -0.7453848 0.09137839
O -0.18156858 -0.21710232 0.7770487
C 0.7679793 0.474595 -0.032241568
C 1.8193872 0.9817253 0.85201067
N 2.6735651 1.4046035 1.5079256
H -2.1611092 -1.1102973 -1.4867867
H -1.8797482 -1.2515882 0.7902397
H 0.28641585 1.305559 -0.5594006
H 1.1994476 -0.19966558 -0.7796101
