13

N 1.37274281 0.02860554 -1.14380623
C 0.10432461 0.42661063 -0.57371796
C -1.00571756 -0.65525895 -0.55071915
N -1.12907519 -0.40376086 0.89224508
C 0.03799096 0.33933206 0.94931925
N 0.83537672 0.76776287 1.83284633
H -1.91774138 -0.45064471 -1.11961091
H -0.59744856 -1.64060085 -0.79566076
H 1.36286238 0.15690053 -2.14880436
H 2.10728539 0.61841531 -0.76910349
H -0.27746820 1.39567929 -0.92710939
H -1.42379676 -1.07689924 1.58577568
H 0.53066480 0.49385842 2.76834550
