11

O -0.35931084 -1.4977857 0.24142002
C -0.10513785 0.6980162 0.030608434
C -0.8638182 -0.38758734 -0.54858404
O 0.9714259 0.3298635 0.68966734
C 0.94937044 -1.146937 0.5091509
N -0.7896855 1.79503 -0.079651326
H 1.6357952 -1.3604801 -0.32243988
H -1.6823958 0.95624346 -0.45751876
H -0.42899 2.726403 0.099316046
H -0.6239425 -0.53577906 -1.611032
H 1.2966892 -1.5769871 1.4490632
