11

O -0.09653658 -0.97207492 0.41498115
C 0.37743820 1.12821967 -0.13696731
C 0.08278505 -0.19662143 1.59375991
O 0.69756483 1.01507523 1.20372057
C -0.06738909 -0.03250664 -0.61097183
N -0.41555757 -0.40790663 -1.90315858
H -1.28574771 -0.92895730 -1.92543765
H 0.56346162 2.07498129 -0.61768760
H -0.89547455 0.02088289 2.04580454
H 0.73358020 -0.73485945 2.28372470
H 0.30587548 -0.96623272 -2.34776793
