9

O -0.931835 -1.1328963 -1.9691457
C -0.40675747 -0.6220209 -1.0178074
N -0.8977254 0.31975743 -0.14215188
C 0.06375295 0.6288248 0.81944346
C 1.1296569 -0.12272932 0.5292527
O 0.8698667 -0.8912297 -0.58334845
H -1.8219017 0.7046462 -0.22898965
H -0.10514667 1.3453404 1.6073724
H 2.1000898 -0.2296925 0.98537433
