9

O -2.0044415 -0.77806395 -0.33707416
C -1.4345583 0.25298 -0.10132697
N 0.75333035 -0.9551476 0.34216866
C 1.1315236 -0.10084324 -0.61578834
C 0.018611204 0.3436151 0.26546872
O 1.9013618 0.11540733 -1.5004113
H 1.3154995 -1.2531538 1.1250857
H -1.9519906 1.2342482 -0.1435882
H 0.27066374 1.1409581 0.9654659
