12

N -0.46346703 -0.25726807 1.272498
C 0.7457198 -0.58089775 -0.679211
C 0.66732687 -0.8964376 1.0539682
C -0.806412 0.7658999 0.30766556
N 1.6596909 -0.13735121 0.27972016
C -0.20149964 0.5034499 -1.1282942
N 0.30175272 -1.7845197 -0.49510548
H -0.94890916 0.122286044 -1.8233658
H -0.4061496 1.7113373 0.6762522
H -1.898984 0.8272446 0.31363943
H 0.3130325 1.3803724 -1.5173067
H 1.0378987 -1.6541159 1.7395395
