12

N -1.79999504 0.20635635 1.09016134
C -0.46347033 0.95744231 0.83874607
C -0.73670483 -0.39399329 1.25769828
C -0.07569046 0.91728303 -0.63452497
N 0.44502028 -0.42594089 -0.93971079
C 0.63642184 -1.41135345 -0.00898648
N 0.06656352 -1.52191188 1.15043704
H -0.93318693 1.10902524 -1.28453056
H 0.81072476 -0.59467578 -1.86090239
H 0.69990442 1.66458095 -0.82956722
H 1.35643807 -2.17869503 -0.29490086
H -0.00602509 1.67188230 1.51608067
