12

N -0.93108433 2.0801394 1.7862102
C -0.85812825 1.2742035 0.963572
C -0.7603221 0.22408919 -0.06744829
C 0.39929143 0.47457066 -1.0838815
N 1.4887697 -0.41052634 -0.67818004
C 1.0038007 -1.1956291 0.19791529
N -0.34403625 -1.054772 0.5102066
H -1.7308966 0.13572258 -0.5647103
H 0.074722655 0.21617697 -2.0967965
H 0.7269212 1.5171014 -1.0896312
H 1.5733377 -1.9901047 0.67194116
H -0.64237565 -1.2709717 1.4508027
