10

C 1.0634425 -0.5548281 0.2214181
C 0.7216242 0.81861633 0.5498727
N 0.25440565 -1.3300916 -0.3894492
C -1.4899653 1.7936072 -0.076676376
C -0.6001136 -2.0913959 -0.8254953
N -0.43149987 1.3097129 0.31277415
H -0.67493486 -2.196777 -1.9118901
H 1.4587985 1.4505024 1.0308099
H -2.3445103 1.7384245 0.6059838
H 2.0427535 -0.937771 0.4826524
