10

O 0.91447157 -1.9315774 0.6160321
C 0.06947054 1.2650608 -0.52184594
N -0.96755755 -0.46623468 0.35631236
C -1.1982039 0.9703465 -0.18358338
C 0.48354635 -0.86278033 0.26342675
N 1.0436219 0.22790124 -0.2701442
H -1.2793583 -0.52951694 1.3257347
H -1.5394605 -1.1267314 -0.16961491
H 0.4401322 2.1820583 -0.9604775
H 2.0333378 0.27147385 -0.4558401
