10

O 1.4372112 -1.7504867 -1.0692682
C 0.6481613 0.287477 -0.13646041
C -0.6896086 -0.2267595 0.06016218
N 0.76294214 1.5004784 0.11063214
O -1.4310291 1.6002474 1.3632153
C 1.6628312 -0.5896303 -0.8675176
C -1.5621583 0.4520704 0.9733204
H -2.3606842 -0.20608337 1.3693228
H 2.580412 -0.07009929 -1.1893159
H -1.048078 -0.9972141 -0.61409074
