10

O 1.6429008 -1.2180595 -0.89119434
C -0.5775914 -0.040237043 0.5121348
C -0.3035486 0.141034 -0.9003934
N -1.168794 -0.8970083 -0.18270628
O 0.23757604 1.345585 2.2279341
C -0.39842603 0.3660544 1.926705
C 0.9887008 -0.37499034 -1.4555671
H -0.89583844 -0.29093954 2.6599715
H -0.83125144 0.8960429 -1.4794259
H 1.3062721 0.072518624 -2.4174576
