10

O -0.09844542 -2.0662494 -0.22910172
C 1.4377805 1.1024276 -0.65936595
C -1.177528 -0.106238514 0.6096391
N -1.005483 2.1475449 -0.26899144
N -1.2738533 1.1463764 0.1981566
C -0.038076982 -0.7442793 0.016890319
N 0.9915292 -0.022270048 -0.27996442
H 2.3178859 1.3924068 -0.057993192
H 0.7291675 -2.3403032 -0.64738506
H -1.8829768 -0.5094152 1.3181157
