10

O 0.89026546 2.3191447 -1.0633702
C 0.12718976 -1.4206923 0.2708305
O -0.45494342 0.8581253 0.05024463
C -1.0941308 -1.6757888 0.96359754
C 0.40898886 -0.16384256 -0.15763353
C -0.10297259 2.083935 -0.44575965
H -1.10503 -2.7571228 1.2190195
H 1.3171494 0.10816236 -0.6909185
H 0.9037229 -2.152795 0.034356628
H -0.8902396 2.8008745 -0.18036701
