10

O -0.22883730 -1.51032341 1.37690647
C -0.14264557 -0.34613353 0.42508660
N -0.04231978 0.87019045 0.86804943
C 0.03230308 1.51565462 -0.35421393
C -0.01894860 0.58917940 -1.37593387
N -0.12483992 -0.68061653 -0.83326004
H 0.54187382 -1.48913051 1.97245598
H 0.11105618 2.59351517 -0.40299706
H 0.00617823 0.73488598 -2.44763724
H -0.13382012 -2.27722168 0.77154376
