9

N 1.7330188 -0.43735892 -0.1287954
C 0.4487566 -0.78993917 -0.077947736
N -0.36498815 0.29712594 0.042364635
C -1.7455589 0.1467217 0.11068491
O -2.5038521 1.0762589 0.21975051
H -2.036051 -0.9129476 0.052147333
H 2.0930808 0.5147484 -0.08668127
H 2.4244409 -1.1633524 -0.22272918
H -0.04884725 1.2687429 0.0912062
