17

C -0.031270057 1.7144997 -1.7347386
N -0.376566 -0.19049779 -0.9726277
C -0.68150365 -1.563243 -1.2742153
O 0.4557146 1.4447782 0.16212289
N 0.29161352 -0.5649239 1.2610582
C 0.11324936 0.22158417 0.16023949
C 0.66394097 0.004943715 2.5407073
H 1.4438072 0.7498721 2.3709197
H 1.058635 -0.7820577 3.186031
H 0.69401026 2.5112033 -1.5953145
H -0.81869507 -1.6629832 -2.3581505
H 0.13089682 -2.2474327 -0.9885497
H -0.17568094 0.49811667 3.0474524
H -1.61327 -1.9117476 -0.8015745
H 0.15136701 1.1618378 -2.6526606
H -0.24473965 -1.4151523 1.27342
H -1.0615095 2.031203 -1.6241204
