15

N -0.4729132 -2.2381213 1.298346
C -0.31765783 -0.9241844 0.90448755
O -0.79923564 0.0005846505 1.5499291
N 0.4153917 -0.76031 -0.24175696
C 0.93226904 0.5399194 -0.67324793
C -0.135665 1.5826277 -1.01695
O -0.60909563 2.3023913 0.08835191
H -1.185544 -2.3459756 2.0061486
H -0.47337604 -2.9518123 0.5868528
H 0.969403 -1.5561258 -0.52115303
H 1.5270189 0.33830404 -1.5702491
H 1.5984232 0.9679049 0.08761001
H -0.9418061 1.08241 -1.57776
H 0.31700873 2.3212864 -1.6887479
H -0.8242213 1.641101 0.7681389
