10

N 0.82536656 -1.5074506 -0.45575163
C -0.20117259 -0.6467583 -0.36143097
O -1.333279 -0.8118595 -0.77995116
C 0.20288561 0.64700097 0.36541152
O 1.3335711 0.81351763 0.7874164
N -0.82508194 1.5068786 0.45233703
H 1.7106227 -1.2340162 -0.057166263
H 0.70227736 -2.3970785 -0.90898204
H -0.70395094 2.3974984 0.9022195
H -1.7112386 1.2322679 0.055897556
