11

N 0.57083523 -0.95559204 0.471192
C 0.13439743 -0.29456612 -0.8720744
O -1.1118838 -0.7114475 -0.9442486
C -0.44761077 -0.33697128 1.0987707
C 0.22734542 1.1642625 -0.32497552
O -0.49971262 0.95050025 0.92894834
H -1.0743021 -0.73893666 1.8953747
H 1.2406195 1.4980053 -0.095484324
H 0.46814585 -1.9650795 0.4429399
H 0.83392054 -0.49969044 -1.6985446
H -0.34175482 1.8895155 -0.90189826
