11

C 0.58570299 0.49227129 -0.07254866
C -0.66587857 0.22701606 -0.93443070
N 0.44960355 1.22602599 1.15886019
C 0.05991735 -0.86419359 -0.25640305
N 0.13884977 -2.05665068 0.12902028
H -1.63536245 0.51879792 -0.53260553
H -0.41126149 0.96030750 1.62903393
H 1.20147071 0.96364311 1.78813252
H -0.56840127 0.36855577 -2.00841381
H -0.62430432 -2.61366965 -0.26248905
H 1.46966390 0.77789652 -0.63815597
