11

C 0.11290154 -0.86023664 -0.2518122
C -0.71556467 0.1683274 -0.90979356
N 0.2929678 -2.0397162 0.1395182
C 0.54514766 0.5326127 -0.09889404
N 0.40276074 1.267515 1.1311187
H -0.44190407 -2.6546464 -0.21794234
H -0.6694144 0.30523244 -1.987802
H -1.6877906 0.39333403 -0.47316113
H 1.3839052 0.8755435 -0.7003627
H -0.418044 0.945105 1.6361827
H 1.195035 1.0669291 1.7329488
