12

O -0.6948812 -0.44602355 -0.7887321
C 0.980593 1.5940443 0.22275294
C -0.38250753 -1.3217149 0.29100198
O -0.26331058 1.7217878 -0.15533775
C -1.1235543 0.80688345 -0.49149996
O 0.97597355 -1.6147219 0.3367724
H -0.9880999 -2.2188778 0.11634813
H 1.2211797 -1.9897158 -0.5231901
H -1.9748971 1.1845521 -1.0412874
H 1.4547914 0.6226405 0.25449517
H -0.6383325 -0.86578774 1.2545273
H 1.4330455 2.5269327 0.52414924
