11

O -0.43135497 -1.0410788 -2.0983114
C -0.343581 1.7121996 0.18786441
C 0.5836301 -0.2141666 -0.07005916
C 0.16321933 -1.2775716 -1.084971
N -0.92190415 0.9430668 1.2392123
C -0.36720642 -0.20561607 1.1022623
N 0.5060455 1.1349323 -0.5732329
H -0.59304816 -1.0514754 1.7460414
H -0.63845974 2.75119 0.07601243
H 1.606725 -0.4446925 0.25341815
H 0.4359344 -2.3067873 -0.77823657
