11

O -0.67857013 -0.21189615 -2.27320603
C -0.34917004 -0.92170665 -1.36547763
C 0.42352175 -0.43946844 -0.13746495
C 0.46692926 1.58120371 0.60559061
N -0.48850385 0.95472795 1.45766515
C -0.51424556 -0.25485992 1.03087275
N 1.01837162 0.86425337 -0.29788345
H 1.19401072 -1.18738467 0.08940727
H 0.69340621 2.63232596 0.75663896
H -1.15817833 -1.01878573 1.45830927
H -0.60757157 -1.99840997 -1.32445211
