12

C -0.11182351 1.1162227 -0.98602974
N -0.48005578 -0.37818536 1.586526
C -0.3060017 -1.0620198 0.43378782
N 0.99056065 1.2755361 -0.16062929
C 0.4181066 -0.2750811 -0.6488416
O -0.6943645 -2.1962433 0.21398845
H -0.04305446 1.3659015 -2.0538137
H -1.0977505 1.3413546 -0.56030047
H 0.00024580007 0.5060626 1.7012924
H 0.6444505 -0.8737718 -1.5337459
H 1.5440571 0.05057051 -0.3698432
H -0.86437005 -0.8703465 2.3776095
