11

C -1.3067837 0.104691155 -0.78367496
O 0.06914074 -0.02003089 -1.0858423
C 0.81934094 -0.53120273 -0.019114364
C 1.0209103 0.49227935 1.0868449
O 1.2849561 0.20435838 2.2261996
H -1.7518198 -0.8704291 -0.5369118
H -1.4808872 0.7932751 0.056822557
H -1.7924372 0.5059685 -1.673461
H 1.8093 -0.77564436 -0.42157644
H 0.38708106 -1.4495723 0.40553427
H 0.9411983 1.5463066 0.7451792
