10

N -1.2264931 -0.709789 -0.2925235
C -0.6283779 -0.0066727074 0.6970728
O -1.120067 0.20393793 1.7856307
C 0.7648718 0.5563035 0.38074082
C 1.3051242 0.1931883 -0.928035
N 1.6801949 -0.12290571 -1.9730691
H -2.1411028 -1.0952077 -0.11645977
H -0.786323 -0.87981635 -1.1828842
H 0.70753413 1.6457351 0.4628551
H 1.4446387 0.21522658 1.1666722
