10

N -1.4547141 -0.027858267 0.38174027
C 0.8947831 0.41977066 0.00028722806
O -0.64412624 2.0983348 0.5644364
C -0.45335323 0.91248596 0.34123755
C 1.1032122 -0.8965657 -0.37812442
N 1.1259025 -2.1046875 -0.53967905
H 1.3052313 -0.8086483 -1.4781219
H -1.2419744 -1.0119214 0.43914577
H -2.327266 0.27759328 0.78634846
H 1.6923046 1.1414962 -0.11727027
