11

N -0.2438897 0.5526792 1.5809225
C -0.41391832 -0.54644465 0.86515296
C -0.14293315 0.9431133 -1.3129892
O 0.6612724 0.0029292996 -1.2997814
C 0.8357482 -0.7932109 -0.007162267
O -1.368437 -1.3065406 0.64839095
H -1.0971648 0.65768373 2.1405842
H -0.25202802 1.4679148 -2.2612028
H 0.925568 -1.8111026 -0.3836306
H 1.7561953 -0.39601555 0.41677716
H -0.6604129 1.228994 -0.38706133
