11

N -0.62707025 -0.7084343 -1.9409685
C -0.3228951 -0.27820218 -0.79998755
C 0.70705545 -0.8751054 0.13299373
O 0.43846238 -0.24473645 1.3695865
C -0.13106848 0.9892035 1.0492393
O -0.84332734 0.81009877 -0.16967568
H -1.3362463 -0.12709002 -2.3825278
H 0.5882144 -1.9552886 0.23761372
H 1.7211853 -0.6518937 -0.22789676
H -0.82974875 1.2779849 1.8350774
H 0.6354384 1.7634633 0.89654547
