11

N 0.31533664 -1.01571780 -0.23616957
C -0.07955718 -0.08782883 -1.27078391
C 0.21200564 -0.47423955 1.01215972
O 0.34880828 -1.03795095 2.07347542
C -0.12564063 0.99077221 0.76749409
O -0.06005007 1.17305323 -0.63358785
H -1.08577803 -0.32146839 -1.65589129
H 0.38437145 -2.01247635 -0.37295913
H 0.62868088 -0.07030388 -2.10482273
H -1.13068444 1.20398415 1.15942104
H 0.59250718 1.65217597 1.26166405
