12

N -0.7795363 0.02719463 1.9849249
C -0.041775096 -0.7006766 -1.525025
N 0.013592034 -1.2143028 -0.17800131
C 0.6592789 0.81510955 -0.09812745
C -0.17321 -0.072531335 0.74367374
C 0.35780543 0.56520396 -1.5348719
N 1.1576746 -0.4794622 0.49573
H 1.1002825 1.725821 0.2990148
H -0.3773247 -1.360452 -2.3124254
H 0.46210366 1.2617574 -2.3545287
H -1.7710943 0.22258888 1.9206878
H -0.6077966 -0.79025036 2.5589488
