12

N -1.0594172 -1.7299664 0.3298324
C -0.15581952 -0.6705372 0.33491984
N 1.167849 -0.7364531 0.64090556
C -0.09510158 1.6029135 0.281332
C 0.56597775 1.2382878 -0.8584729
C 0.8760939 -0.1590083 -0.70667225
N -0.34674877 0.5621683 1.0950878
H -0.2838871 2.6076717 0.64785147
H -0.8486755 -2.4134996 1.0456221
H 1.359343 -0.7293161 -1.4921225
H -2.022911 -1.4245858 0.3846136
H 0.84329706 1.852325 -1.7028972
