11

N 0.22387204 -0.41293618 -0.25656152
C 0.5091826 0.83226925 0.20965013
O -0.35414937 1.5704454 0.8155462
N 1.624656 1.5111618 0.15156288
C -1.0264852 -1.0115622 -0.12355788
N -1.215221 -2.1794631 -0.57623565
H 0.7318944 2.2742684 0.7808014
H 2.48683 1.2053463 -0.2711967
H 0.93753034 -0.95732343 -0.71919817
H -2.1737366 -2.4663675 -0.39643306
H -1.7443732 -0.3658387 0.38562244
