9

O -1.1561246 -1.2883162 -1.0786393
C -0.37984085 -0.47439685 -0.3460053
C 0.47687948 -0.7903887 0.65310574
O 1.0294042 0.39590123 1.0811747
C 0.470612 1.3324858 0.31451964
N -0.37593162 0.8876101 -0.5547833
H -1.6344187 -0.72812015 -1.7038238
H 0.7975993 -1.6913072 1.146346
H 0.7718211 2.356532 0.48810548
