9

O -1.6698614 -1.0108558 1.0948776
C 0.34867677 0.1861645 -0.10437146
C -1.4523127 -1.1523134 -0.08336267
O 1.6000911 0.8248482 -0.6310844
C 0.8006577 1.0749348 0.8107202
N -0.38052127 -0.5822422 -0.7894459
H 1.3773605 1.5875174 -1.1844189
H -2.09565 -1.761411 -0.739164
H 1.4715596 0.8333575 1.6262496
