9

O -0.45485783 -2.40385341 -0.33956810
C -0.73712188 -1.12560732 -0.71852603
C -0.45063418 -0.03410244 -0.05387393
O 1.09153711 2.49407812 -0.41984658
C 0.85899693 1.79341460 0.52356578
N -0.29443682 0.97803671 0.63960315
H -1.22100016 -1.04362089 -1.68479912
H -0.25380743 -2.42655390 0.60481044
H 1.46132457 1.76820856 1.44863425
