11

N 1.03478 -0.017673662 -1.551219
C 0.28037372 -0.025672873 -0.3742419
C -0.375758 0.96867573 0.32159388
C -0.8750448 0.31635317 1.4716648
N -0.57257617 -0.9679781 1.4939064
N 0.13501135 -1.1558876 0.35808071
H 1.0318234 0.8974708 -1.9837279
H 0.7329379 -0.707845 -2.2283487
H -0.48367038 2.0047283 0.03475209
H -1.4562246 0.74430215 2.277868
H 0.5483475 -2.0564728 0.17967184
