11

N 0.064584255 -2.2241704 0.20570773
C 0.6103048 1.3837544 0.17689526
C 0.57076794 0.10967575 -0.13832866
C 0.45317954 -1.1274092 -0.5561037
N -1.6067407 1.7336053 0.21927482
N -0.50418454 2.2643983 0.008648741
H 0.5342281 -3.083516 -0.03873701
H 0.62168336 -1.3418044 -1.6111643
H 0.048356786 -2.067181 1.2008585
H -2.309955 2.4640903 0.036859192
H 1.5177755 1.8885579 0.49608937
