9

O 1.0640221 -1.9482007 0.577587
C -0.52784777 0.14567004 0.51227075
C -0.79936373 1.3850899 -1.8147161
C -0.66573673 0.82803637 -0.75586563
C 0.55725694 -0.749761 0.7762246
N 0.77956605 0.35440272 1.3271427
H 1.9313865 -1.9929669 1.0130532
H -1.433652 0.09004713 1.1154692
H -0.90563124 1.8876822 -2.7511654
