9

O 2.16821115 -0.74414087 0.07968946
C -0.45765604 -0.58254474 0.11600386
C -1.05373513 0.58257595 -0.50042988
C 0.92370646 -0.61837727 0.48946640
C -1.55368277 1.54031622 -1.03157492
N 0.21796449 -0.42048841 1.50675587
H -1.00659836 -1.51468417 -0.01515252
H -1.99573236 2.39784414 -1.48990572
H 2.75752271 -0.64050081 0.84514779
