9

O -1.3223525 -0.6600044 0.8825313
C -0.5982228 0.29786715 0.15419267
C 0.8610444 0.19401738 0.33761668
C 2.0444465 0.07458605 0.5090252
C -0.9278509 0.23388368 -1.2958748
N -1.2066561 0.15565829 -2.4133549
H -1.0034115 -1.5381651 0.6373688
H -0.94423455 1.2667542 0.52738136
H 3.0972376 -0.024597216 0.66111404
