11

C 0.0652403 0.91590625 0.715022
O -1.0425442 0.049792826 0.8883894
C -0.68502307 -0.97429633 -0.032214947
C 0.30044633 -0.12712023 -0.8469389
O 1.5636656 -0.4469192 -1.0322859
H -0.14821279 -1.8000455 0.45271438
H 1.1862571 0.38373503 -0.07170844
H -0.20810395 0.5248511 -1.5811254
H -1.5571221 -1.3486043 -0.5787919
H 0.7566491 0.87503785 1.5745772
H -0.23125227 1.9476625 0.5123627
