10

O 1.315214 -0.9169775 0.48936063
C 0.40620732 0.13584796 0.36547858
C 0.005366495 0.44575047 -1.0781064
O -1.3909972 0.18162091 -0.7621594
C -1.082441 -0.20481323 0.5057941
O -1.8045295 -0.65438706 1.3383524
H 1.3313298 -1.1995233 1.4128469
H 0.6898195 1.0218207 0.9514146
H 0.38693568 -0.2795322 -1.7971109
H 0.14309496 1.4701934 -1.4258705
