10

O 1.44338039 -1.41437196 -0.88636384
C 0.63638511 -0.63359113 -0.16878237
C -0.30808291 0.30663623 -0.28588141
O -1.03835101 0.84898657 -1.30668204
C -0.42148593 0.24163353 1.22615348
O 0.66175346 -0.75352789 1.19000175
H -1.32565117 -0.21059655 1.64354034
H -0.10693786 1.11008905 1.81217044
H 1.25624747 -1.27580285 -1.82289777
H -0.79725749 1.78054514 -1.40125856
