11

O -1.801045 0.66070503 -1.6405343
C -1.1585951 0.028971903 -0.8669478
O -1.2126515 -1.3174623 -0.60881
C -0.22168276 -1.2424754 0.4542149
C -0.042747315 0.23621425 0.13877515
C 1.1267712 1.1002752 0.06641154
O 0.092425354 1.2998238 1.0298969
H 0.62776107 -1.897467 0.2526622
H -0.6699415 -1.4594336 1.4250398
H 1.1883395 1.8538109 -0.71653277
H 2.0713656 0.7370371 0.4658243
