11

O -1.9285651 0.9983619 -1.2921412
C -0.14937901 -0.21646507 0.05409719
O -0.5774625 -1.4709388 0.4827361
C 0.3795921 -1.4203885 -0.57322204
C 0.48292905 0.89280033 0.87873614
C -1.0284029 0.8776959 -0.5252816
O -0.367661 1.8484125 0.18437609
H 1.3817908 -1.7520798 -0.30448705
H 1.5405269 1.0988197 0.7015972
H 0.010814171 -1.7205706 -1.5510532
H 0.25581774 0.86435217 1.9446427
