11

N -1.6927841 -0.05202467 -1.0632288
C 0.51867104 -0.14703731 -0.77839524
C 0.5232303 0.29937986 1.432257
N 1.3106214 0.31986922 0.33977753
C -0.7764719 -0.17900205 -0.12699223
N -0.7393903 -0.03747481 1.2354914
H -0.5638606 0.15725203 -1.7575184
H -2.6629562 -0.30199262 -0.9038022
H 2.3050215 0.46608952 0.36021298
H 0.903456 0.5905999 2.405758
H 0.87446266 -1.115659 -1.1435598
