12

N -0.29194656 -0.8345895 1.7675227
C 0.099631935 0.2942074 1.0860835
O 0.8496309 1.1323198 1.5364711
N -0.4930834 0.37551612 -0.18483073
C 0.2695627 0.9370674 -1.274061
C -0.07081043 -0.51285625 -1.2552698
H -1.1415669 -1.2913626 1.478126
H -0.10058136 -0.8215305 2.7570043
H -0.27802357 1.6139477 -1.9243863
H 1.2961159 1.2180839 -1.0580084
H -0.8702847 -0.8966246 -1.8872653
H 0.73135537 -1.2141786 -1.0413862
