12

N 0.2691775 -1.7658755 0.29931763
C 0.01944234 -0.58711284 0.894749
O -0.103883296 -0.3755769 2.0727181
N -0.08565685 0.52005136 -0.08940634
C 0.34786937 1.682562 0.34414616
C -0.53975475 0.20089827 -1.3299426
H 0.49510434 -1.8023103 -0.6804073
H 0.3835421 -2.5707433 0.8926734
H 0.2357565 2.544666 -0.29842263
H 0.8102803 1.7361078 1.3197153
H -0.54923004 1.0045707 -2.0515616
H -1.2826477 -0.5872373 -1.3735789
