12

C 0.094177864 0.085489534 0.8874092
C 0.20178299 -0.42596558 -1.5640044
C -0.55760455 -0.53342825 -0.23753633
O 1.0194643 -0.7001614 1.3342662
N -0.18809637 1.2224439 1.5258288
H 0.08230961 0.550128 -2.0629213
H -0.14920534 -1.1941019 -2.2607772
H -0.8134671 1.8952191 1.1184145
H 0.22101627 1.4096078 2.42991
H 1.2764524 -0.59258527 -1.4165334
H 0.43205252 -1.4260411 0.5886603
H -1.6188825 -0.2906044 -0.3427167
