10

C 0.062974885 0.49410552 -0.07593979
O -0.20774642 -1.8384093 0.078935534
C -0.28198683 -0.6580032 -0.65499866
O 0.18704847 1.6757783 -0.73635054
N 0.29551834 0.6465307 1.2840993
H 1.0616788 1.2779814 1.4785169
H -0.5555898 -0.72544944 -1.7056692
H 0.41266125 -0.25287387 1.725665
H 0.13469738 1.4982796 -1.6839743
H -1.109256 -2.1179395 0.28971553
