10

C 0.5955316 1.3863503 -0.5834836
O -0.4025163 0.38438967 -0.38818035
C -0.028586268 -0.6261438 0.43155682
O 1.0514562 -0.7158394 0.9626845
N -1.0635 -1.503977 0.5843443
H 0.852252 1.8676641 0.36453855
H 0.14834149 2.109934 -1.2665118
H 1.4990939 0.95571697 -1.0230088
H -1.8264222 -1.4637457 -0.070718326
H -0.8256503 -2.3943493 0.9887787
