10

C -0.10027762 0.47117741 -0.14767923
O -0.69289110 1.49954963 -0.81036092
C -0.53164604 -0.79158328 -0.17960078
O 0.24924739 -1.79288879 0.39059421
N 0.98254542 0.90856825 0.60278712
H 1.53220911 1.60756805 0.12029448
H -1.35840828 1.13113300 -1.40499803
H 1.53725718 0.12513157 0.91287281
H -1.44238338 -1.08547485 -0.69680617
H -0.17565256 -2.07318115 1.21289652
