10

O 1.9851514 -0.09459228 0.06703107
C -0.34515342 0.733068 0.39386004
C 0.7093195 0.08500733 -0.4539985
C -1.4161018 -0.046846956 0.29447925
N -1.1179782 -1.2135962 -0.5043374
N 0.06643362 -1.1823354 -0.8882367
H 0.8367624 0.6560819 -1.3848735
H -0.23248766 1.6717936 0.9175968
H -2.4101076 0.051081814 0.7103692
H 1.9241618 -0.65966177 0.84810966
