10

O -0.23754399 -0.17253055 2.0257962
C -0.10531174 -0.03486565 0.6911682
C 0.7046737 -0.6142249 -0.25911686
C 0.29229686 0.009319751 -1.4651479
N -0.67548496 0.88750654 -1.277995
N -0.9045761 0.84520966 0.053617176
H 0.39399582 -0.830511 2.3413308
H 1.4676945 -1.3635945 -0.111549765
H 0.6755658 -0.15991794 -2.4629195
H -1.6113099 1.4336084 0.46481645
