10

N 1.4785378 0.49909392 0.92155737
C 0.22404951 0.6237551 0.37641528
O -0.44724187 1.6311901 0.44473013
N -0.22930223 -0.54461616 -0.23817283
C -1.4591715 -0.64063823 -0.8710497
O -1.8551668 -1.6723752 -1.3547249
H 1.8782525 1.3736001 1.2269404
H 2.1266744 -0.17189749 0.53820753
H 0.29147792 -1.4085883 -0.1665325
H -2.0081096 0.31047592 -0.87737066
