10

C 1.1579982 0.91614187 -0.9513715
O -0.36631203 -0.5574878 0.43077284
C -1.1476897 -1.3921603 1.20168
O -0.742495 -2.4499552 1.571519
C -1.0102489 0.60165614 0.085712515
O -0.19930808 1.3150145 -0.636546
H 1.1574705 -0.019025452 -1.5161532
H 1.7388551 0.7992043 -0.03249248
H 1.5478866 1.7343003 -1.5544245
H -2.1361566 -0.947688 1.4013035
