10

C -0.9905913 0.38558903 -1.3119655
O -0.53994244 -0.39466247 -0.19319354
C 0.5237365 0.09474811 0.43473583
O 1.1172965 1.1056708 0.14758632
C 0.962883 -0.7664928 1.6131727
O 0.4079312 -1.7790661 1.9433672
H -1.8486879 -0.15387534 -1.7097553
H -1.2814758 1.3878198 -0.9844122
H -0.20105349 0.46703422 -2.062631
H 1.849904 -0.34676543 2.1230953
