11

N -1.6767439 -0.97524494 -0.45106295
C -0.48208466 0.2766385 -1.17903
C 1.390375 0.25195354 0.92311174
N 0.32265955 -0.6311884 1.0071895
C -0.43224365 -0.40541252 -0.008510554
N 1.4681283 1.170028 0.030358227
H 2.163336 0.08629794 1.6785791
H -1.6543096 -1.8857019 -0.88472193
H -0.96092993 1.2358627 -1.3386518
H 2.3434124 1.6836957 0.08453226
H -2.4815998 -0.8069286 0.13820606
