11

N -1.14209798 -0.24932369 1.51262327
C 0.59177842 0.10977546 -0.39319518
C -0.13029618 -0.03888317 0.73894756
N -1.28875352 -0.23784783 -1.83373737
C -0.03917706 -0.00805202 -1.68968606
N 0.22764018 0.04290961 2.14223024
H 1.65030481 0.33124095 -0.30663454
H 0.68215280 -0.73781925 2.60237147
H 0.31965323 0.94826750 2.58711131
H -1.52010566 -0.27896904 -2.82172394
H 0.64890126 0.11870152 -2.53830663
