11

N -1.4100997 -1.7375846 -0.26920033
C 0.5713184 -0.39635727 -0.18262257
C -0.1437184 -1.6329235 -0.41175804
N -1.0580631 1.4846363 0.575271
C -0.08631057 0.71447015 0.21590582
N 0.36130667 2.0653267 0.4966836
H 0.80192214 2.2863438 1.3826061
H -1.7037992 -2.6861358 -0.48209336
H 0.52777755 2.710153 -0.26656273
H 0.49637341 -2.4724908 -0.7201155
H 1.6432928 -0.33543834 -0.33811405
