10

O 0.059994284 -1.4485041 1.6639386
C 0.0374576 -0.47735602 0.7369906
N 0.13756947 0.8012622 0.9507921
C 0.057062387 1.3639122 -0.3111393
C -0.09043725 0.4054556 -1.2651432
N -0.10179317 -0.7983767 -0.56766945
H 0.16505918 -0.9960887 2.513199
H 0.113363095 2.4349291 -0.44544366
H -0.18744862 0.44499832 -2.3376713
H -0.19082695 -1.7302321 -0.93785346
