11

O 0.18651058 -1.9072113 1.1306522
C 0.028188067 -0.7642953 0.41397056
C -0.8745827 -0.3683733 -0.5375991
C -0.50073403 0.96416134 -0.9084887
C 0.59663045 1.3147858 -0.17728008
N 0.91598815 0.24217643 0.636333
H -0.50834644 -2.5210745 0.8653693
H -1.700017 -0.95066226 -0.92228985
H -1.0025603 1.5801947 -1.6402339
H 1.1820227 2.2208471 -0.1538321
H 1.6769005 0.18945156 1.2933986
