11

O 1.6538179 0.36268285 0.794852
C 1.0636122 -0.42276308 -0.048398018
C -1.0844094 -0.50703645 0.19171906
C 0.009296695 -1.2882999 0.4231661
C -0.64736146 0.7124697 -0.4567351
N 0.58603257 0.34773642 -1.1027088
H 1.2088693 1.1360731 -1.2429974
H 0.11924192 -2.1201034 1.1034653
H -2.0896404 -0.66972435 0.56184703
H 0.5256491 1.0852959 0.7572873
H -1.3451085 1.3636692 -0.9814975
