9

N -0.119945675 -0.8474712 0.45214757
C 0.35924318 0.37758124 0.8584687
C 0.2764225 1.1772147 -0.24651907
N -0.23708694 0.48050615 -1.312683
C -0.46289274 -0.7271059 -0.86012155
H -0.2014135 -1.6765988 1.0164062
H 0.7009191 0.550337 1.868086
H 0.5548929 2.2176917 -0.34559548
H -0.87013876 -1.5521551 -1.4301895
