9

N -0.28994304 0.86822927 -1.052519
C 0.7356875 0.680775 -0.30209774
C -1.2315706 -0.08737577 -0.5791726
N -0.8728048 -0.83901834 0.39104286
C 0.4837209 -0.4143485 0.68959105
H 0.5574132 -0.069607094 1.7277626
H 1.646443 1.2621449 -0.40460727
H 1.1785977 -1.2552649 0.5804395
H -2.2075438 -0.14553449 -1.0504392
