9

N -0.47942352 -1.13517560 0.31651857
C 0.29410936 -0.04788464 0.89017588
C 0.40485239 0.93650958 -0.23451666
N -0.19619337 0.50592026 -1.28500513
C -0.71158803 -0.75763202 -0.88288044
H 1.26910967 -0.41377968 1.23281772
H -0.21902736 0.36682397 1.76583840
H 0.91366306 1.89478106 -0.20619356
H -1.27550214 -1.34956313 -1.59675491
