10

C -0.41668954 -0.8160993 -0.35884094
O -1.4278039 0.619801 0.98256373
C -0.3144943 0.41861916 0.3733412
O 0.7965883 -1.4448787 -0.70007586
N 0.74703735 1.2053101 0.5240694
H 0.8817532 -1.4833974 -1.6596057
H -1.1073488 -0.69927996 -1.2019988
H 1.6051877 0.90455574 0.08473966
H -1.5626427 -0.5450892 0.64864177
H 0.7984126 1.8404584 1.3071656
