10

C -0.6989439 -0.6572515 0.16824937
O -0.44148254 -1.0202736 1.4879853
C 0.06687248 0.26427498 -0.42154258
O -0.18717009 0.79826695 -1.6434635
N 1.2357551 0.7667257 0.124975935
H -0.007700314 -1.884192 1.4788866
H 1.308505 0.54066324 1.1053082
H -1.0740645 0.53109777 -1.9179279
H 1.3685102 1.7506073 -0.06483742
H -1.5702815 -1.0899189 -0.31763422
