11

N 1.65722844 1.69102868 2.05028543
C 1.32966981 0.92197734 1.25236424
C -1.57513457 -1.57581463 -1.21041811
C -0.43857763 0.39379726 -0.38444169
C 0.89210367 -0.03137179 0.22789798
O -0.77775863 -0.56650454 -1.41046158
H -1.92542186 -1.48569969 -0.14073538
H -1.23914029 0.41530842 0.36541761
H 0.78865018 -1.02210599 0.68531022
H -0.36383838 1.36515327 -0.87815520
H 1.65221933 -0.10576819 -0.55706295
