11

N 0.14394288 -2.04585619 0.67177744
C 0.12315367 -0.84489905 0.29794960
O 0.76853076 0.20401441 0.87349483
C -0.64550408 -0.30041073 -0.88520223
C 0.36927973 1.39259895 0.19276460
O -0.12354934 1.00303969 -1.05255016
H -0.46850163 -0.88742312 -1.78911342
H 0.71156635 -2.16738527 1.50644606
H -0.39689788 1.89893230 0.79890284
H 1.23904409 2.03272946 0.04817732
H -1.72106466 -0.28534043 -0.66264731
