11

N -0.66374385 1.5198593 -0.13104849
C -0.79492533 -0.83873403 0.48158982
O -0.15916985 -0.01666136 -1.7777596
C 1.1832588 -0.08434981 0.27630532
C -0.42028296 0.2708928 -0.5745735
O 0.46819288 -0.8484242 1.1587821
H 1.8177048 -0.6429127 -0.41296488
H -1.5811007 -0.5465782 1.1783128
H 1.6037133 0.8201042 0.70561826
H -0.98375756 -1.798265 -0.006445804
H -0.46988964 2.1650689 -0.89781606
