17

C -1.68564766 0.89308491 -1.67490193
N -0.25409161 1.23456973 -1.15667306
C -0.38420560 0.26680088 1.47374225
O 1.30929672 -0.38479592 -1.66520103
N 0.43275921 -0.38187025 0.45728001
C 1.21853487 -1.53488663 0.86269232
C 0.59178413 0.07953260 -0.80678884
H -1.31324280 0.64672430 1.04284229
H 0.15359238 1.08442306 1.97423357
H -0.34766452 1.90358090 -0.39412963
H -2.09364117 0.28554300 -0.84677275
H 0.55404642 -2.32157960 1.23717025
H -0.65208288 -0.47700574 2.22819094
H 1.92211141 -1.26163943 1.65748171
H 0.22412779 1.70562480 -1.92152927
H 1.77213598 -1.90176578 -0.00020867
H -1.44781262 0.16365909 -2.46742773
