11

O 0.32103920 0.17129808 2.34574510
C -0.81939792 0.44376965 -1.08687480
N -0.67352200 0.55560936 0.34915252
C 1.46499612 -1.25168177 -0.78333506
C 1.28003009 -0.90080599 0.46316616
C 0.27390887 -0.01454445 1.14766410
H -0.63589372 1.40232229 -1.58322740
H -1.81882587 0.08169655 -1.34663587
H -0.09889712 -0.28133562 -1.49115243
H 2.02391995 -1.34709880 1.12994124
H -1.31735760 1.14077067 0.85555689
