11

O 2.3039548 -0.00381144 0.57158273
C 0.7312527 -1.3273065 -0.6066121
N 0.17522936 0.76370734 0.5198912
C -1.218556 0.74034864 0.12902153
C 1.1523694 -0.13721007 0.21351475
C -0.41013768 -1.7006695 -1.1251867
H -1.8673936 0.7895471 1.0088046
H -1.4573413 1.565737 -0.5496378
H 1.5354111 -2.0340905 -0.8322757
H -1.4554787 -0.1970217 -0.39399275
H 0.5106898 1.5407695 1.0648904
