12

C 1.3443062 -0.5864394 -0.3201347
N 0.6288637 1.5516243 0.7374468
C 0.3382922 0.28990132 0.1566557
N -0.98640376 0.06899111 -0.039052848
C -1.6683778 -0.9527979 -0.49457744
O 2.5445673 -0.35811418 -0.19720334
H -1.1585582 -1.8463416 -0.8236767
H -2.742312 -0.8654678 -0.53876424
H -1.5432084 0.8792067 0.23749432
H 1.5376434 1.8385425 0.3762212
H 0.9865373 -1.5082302 -0.84173155
H 0.7186493 1.4891251 1.7473229
