12

C 0.43272408 0.17983504 0.05860603
N -0.90415878 0.31628769 0.24846765
C 0.99919769 -0.86947922 -0.70651718
N 1.19600677 1.26704208 0.55768055
C -1.93118152 -0.45419229 -0.01273902
O 2.20318867 -0.96072294 -0.93001562
H -2.91277007 -0.09790528 0.25643967
H 2.01422164 1.35170329 -0.04401990
H -1.12754161 1.20917124 0.69098107
H 0.28055320 -1.61809213 -1.12231636
H 1.53753180 1.08692782 1.49722131
H -1.78777199 -1.41057507 -0.49378826
