9

N 0.01631606 0.11897598 1.21964734
C -0.43315474 -0.90171200 0.58804734
C 0.46643351 1.02429557 0.17914489
N 0.23495319 0.42711472 -1.12338282
C -0.29940944 -0.71038510 -0.86845460
H -0.84796680 -1.76982843 1.09122877
H 1.53221442 1.24229943 0.30949555
H -0.07066017 1.97659745 0.25018249
H -0.59872592 -1.40735784 -1.64590896
