9

N 0.9664345 -0.68069345 0.5331503
C 0.6436401 0.6065759 0.7514691
C 0.1362215 -1.0638571 -0.44643337
N -0.3800811 1.0897281 -0.11638867
C -0.70554805 -0.018689875 -0.82028437
H 0.15093245 -2.0756843 -0.83430886
H 1.2591456 1.3079644 1.3062243
H -0.5410794 0.8446159 1.1467401
H -1.5296657 -0.0099595655 -1.5201687
