9

N 0.20972472 -1.2667406 2.632103
C -0.6188487 -0.56179553 0.45479336
C 0.24444315 0.29736993 -0.31523454
N 0.05297677 0.8134168 -1.5059566
N -0.17476378 -0.94281036 1.628196
O 1.3978217 0.6903129 0.10234843
H -0.7728147 0.6752084 -2.074493
H -1.5926099 -0.921623 0.15754098
H 1.2540708 1.2166616 -1.0792974
