9

N -0.88880664 -0.5760809 -1.2250111
C 0.23357934 -0.14676319 -0.5526526
C -0.051046748 0.37171263 0.7866164
N 0.96109 0.8049214 1.4848018
N 1.8376032 1.1736149 2.0866451
O 1.3465704 -0.15909636 -1.0432467
H -0.7048291 -1.0951493 -2.0709422
H -1.7069867 -0.84550405 -0.70490634
H -1.0271736 0.47234482 1.2386962
