9

N -1.61527989 -1.12056114 -2.03111459
C -0.88141765 -0.13961839 0.07051735
C 0.51758685 0.20469924 0.26359451
N -1.26896871 -0.66671375 -1.06226367
N 1.05300641 0.72184465 1.29150220
O 1.27875511 -0.08797719 -0.81663435
H 2.17726381 0.17951608 -0.56873377
H -1.64360099 0.01597498 0.81720972
H 0.38265522 0.89283547 2.03592317
