10

O 0.17492591 -1.66076097 -0.37240142
C 0.21233190 -0.51357858 0.04194105
C 1.39516574 0.01677457 0.75613593
O 2.23490519 0.52775634 -0.09789887
C -1.02688718 0.35973499 0.00511170
O -2.14851214 -0.33601014 -0.42805299
H -1.18190154 0.77833948 1.01009736
H 3.00932211 0.86374475 0.37816430
H -1.85824145 -1.24135757 -0.62582293
H -0.81110885 1.20535719 -0.66727418
