10

O -0.69942876 -0.39925585 2.08178594
C -0.32201479 -0.18180618 0.95663249
N 0.95229187 -0.41786540 0.45365976
C -1.06035653 0.39367550 -0.25060078
C 0.98376302 -0.04217247 -0.88587029
N -0.10823632 0.42041939 -1.35645445
H 1.71139481 -0.80308569 0.99162760
H -1.42648778 1.40342515 -0.03418753
H 1.90020969 -0.15188333 -1.45769459
H -1.93113517 -0.22145129 -0.49889843
