10

O 0.86612755 1.8848202 -0.17352112
C 0.19769211 0.8079632 0.07244233
N -0.6635918 -1.1807096 -0.65858746
C -0.43155387 0.17729382 -1.0252432
C -0.2582767 -1.2825166 0.5572682
N 0.26132903 -0.08318942 1.0905098
H 0.64364135 1.1650257 -1.3003123
H 0.86035264 0.003294342 1.8976932
H -0.2940692 -2.178462 1.16439
H -1.1816511 0.6864801 -1.6246394
