10

O 0.5438782 2.0683696 -0.7348756
C 0.5762958 -0.114962146 0.41205406
C 0.102249146 0.85417414 -0.37494668
C -0.44769216 -1.1888491 0.33346546
N -1.1522942 0.48635256 -0.9521239
N -1.4769223 -0.65303546 -0.5691431
H -0.93069535 -1.4279523 1.2895966
H -0.09160626 -2.1341126 -0.09395869
H 1.3841404 2.2439475 -0.2958641
H 1.4926469 -0.13393202 0.985796
