10

C 1.20196 -0.46765107 -0.66471285
O 0.34192508 -1.0664084 0.19817604
C -0.34533855 1.3264154 -0.5877173
O 0.93487424 0.87063164 -0.77046096
C -0.61005336 -0.29489198 0.8900476
O 2.0998483 -1.0378423 -1.1950175
H -1.6087484 -0.7001434 0.7235995
H -1.0222446 0.6967496 -1.1971642
H -0.34127435 -0.25170317 1.9526962
H -0.6509486 0.92484367 0.6505539
