11

O -2.2996514 -0.62195426 -0.4263579
C -1.1572822 -0.37364024 -0.16054851
C 0.113437235 -1.2118908 0.040703274
N 0.7588049 -0.050262112 0.7300633
C 0.8568204 0.97992456 -0.28497067
C -0.4434508 0.81167036 0.41456902
H -0.05602059 -2.0376542 0.7371479
H 0.6552225 -1.5755082 -0.83758026
H 0.9573651 0.694542 -1.330723
H 1.4570339 1.833588 0.017424002
H -0.8422795 1.551185 1.1002729
