11

O 0.18724622 -1.1001022 -2.1454067
C 0.60790604 0.8674632 -0.6064015
C -0.82303655 0.034704715 1.0494341
N 0.5657749 0.3746404 0.803707
C 0.023918768 -0.95589995 0.33423257
C 0.17068493 -0.52556574 -1.0931444
H -1.0427372 -0.1861849 2.091037
H -0.03523411 1.7296487 -0.8044441
H -1.6060119 0.5721607 0.51815
H 1.6327747 1.0936955 -0.9161584
H 0.31871417 -1.9045603 0.76899403
