11

C -0.4101519 0.917056 -1.1534984
C -0.073386095 -0.33170098 -0.378256
O -0.054928344 -1.4352138 -0.8801423
C 0.27865732 -0.18573625 1.093147
O 0.6509865 -1.4038116 1.6535766
H 0.5167734 1.3387849 -1.5603747
H -0.86985165 1.6811256 -0.5177164
H -1.0689578 0.67730385 -1.9910839
H -0.59789455 0.24187844 1.6076303
H 1.0868182 0.5574201 1.1838777
H 0.54193497 -2.0571065 0.9428403
