11

C 0.30876362 0.7400771 1.1020014
C -0.21045081 -0.18149744 0.09064061
O -0.673718 -1.4349525 0.43326458
C 0.2564329 -0.1539444 -1.3390777
O -0.9992684 0.8963911 0.52765346
H 0.6223684 0.8432088 -1.5986987
H -0.573558 -0.41364846 -2.0026302
H 0.3115529 0.43611366 2.1501505
H 1.0582154 -0.883144 -1.483295
H -1.1278571 -1.362608 1.284154
H 1.027519 1.5140041 0.835837
