11

C -0.37567536 0.74695918 -1.08789049
C -0.05083556 -0.28471246 -0.04243999
O 0.24156590 -1.50067831 -0.62475064
C 0.47637730 0.07410124 1.27476661
O -0.88713877 -0.33862519 1.08572111
H -0.60416911 1.70609168 -0.61515185
H 0.47303843 0.87022516 -1.76603225
H -1.24208197 0.42070235 -1.67058174
H 1.09752076 -0.64267053 1.81461578
H 0.61002830 1.11747371 1.55748041
H 0.26137013 -2.16886708 0.07426325
