10

N 1.7916155 -0.6382746 -0.45809248
C 0.59153396 -0.20889384 -0.12326596
C -1.447383 0.5483642 -0.35987744
C 0.14658637 -0.1102037 1.2815084
C -1.1029681 0.3672386 1.0574653
O -0.22436917 0.13080919 -1.0875266
O -2.383271 0.9096454 -0.9884634
H 2.0834143 -0.7177243 -1.4200478
H 2.4015732 -0.9023344 0.30202925
H -1.8567325 0.6213733 1.7962705
