11

C -0.7304174 -0.17116721 -2.3163822
C -0.16301726 -0.1240717 -0.97106874
C 0.31768692 -0.08970298 0.13223054
C 0.975745 -0.09921725 1.4403055
O 2.084592 -0.56340593 1.608313
N 0.24344029 0.46720213 2.4399288
H 0.009135396 0.15442754 -3.054943
H -1.6052427 0.477412 -2.3953793
H -1.0320958 -1.192746 -2.564049
H 0.61576134 0.4043457 3.3760235
H -0.7155876 0.7369239 2.3050206
