9

O 1.7446649 0.54202396 -1.6399732
C 0.8903213 0.3561481 -0.81793064
N 0.2688508 -0.8139512 -0.44114515
C -0.67033184 -0.5576393 0.5557386
C -0.6175445 0.75780785 0.7831429
O 0.32305124 1.336404 -0.03789996
H 0.48771474 -1.7013981 -0.8592459
H -1.2770066 -1.329042 1.0002941
H -1.14972 1.4096469 1.4570191
