11

O -0.20532128 -1.8485348 -1.1734629
C -0.11269859 -0.60791874 -0.6053025
C -1.1030356 0.43780348 -0.5901412
C -0.5772706 1.2810408 0.4602351
C 0.50327533 0.6933368 1.0787319
N 0.7865327 -0.48601735 0.47027582
H 0.1359638 0.2521746 -1.4104719
H 1.5417459 -1.1194944 0.68089575
H -0.99365836 2.2399912 0.7423037
H 1.1218591 1.0497918 1.8930002
H -1.0973924 -1.8921734 -1.5460643
