11

C -0.19583225 -1.06351586 -0.35236552
C 0.19082699 -0.45035571 0.93902445
O 0.65952631 0.76722444 0.94473167
C 0.72244045 1.62900178 -0.03429274
O -1.28523983 -0.41618500 -1.02078282
H -2.00389544 -0.36360025 -0.37850798
H 0.21478642 1.41884662 -0.96273334
H -0.41813163 -2.12471967 -0.17978770
H 0.63326823 -1.00122661 -1.07471790
H 0.29911974 -0.96576789 1.88300129
H 1.18313079 2.57029835 0.23643025
