11

O 0.9132412 0.4913055 -1.2520983
C 0.55203485 -0.96021247 0.78772956
C -1.1880618 -0.6612846 -0.056162633
C 0.51553303 1.5178434 -0.33451763
O -2.3444164 -0.35132903 -0.12419231
C 0.15827079 0.109904446 -0.12514573
O -0.5394293 -1.3551508 1.3242342
H 1.5236051 -1.4230293 0.978723
H -0.65529233 -1.5188301 -0.75435954
H 1.3257235 1.9621319 0.24588856
H -0.26120868 2.1886508 -0.69009924
