11

O 1.2011553 0.6410846 -1.9633063
C 0.16459358 0.6879845 -1.3562478
C 0.04445746 0.16312541 0.05512611
C 0.86678886 -1.0052557 0.43776318
O 1.1986423 0.2870885 0.8691516
C -1.2541469 0.36594856 0.77678686
O -2.2884688 0.6004161 0.20673512
H -0.7694899 1.0988632 -1.7814634
H 0.49934363 -1.6844579 1.2080705
H 1.5147151 -1.4239465 -0.33039942
H -1.1775904 0.26914918 1.8777835
