10

N 1.0129497 -0.24232891 0.5066242
C -0.28238317 -0.32785624 0.059163235
N -0.065276556 1.9637364 -0.85120046
N 1.685096 0.7903269 0.27526376
N -1.1417704 -1.4204583 0.2361883
C -0.55811095 0.87357664 -0.5577226
H -0.74575895 -2.2734096 -0.138406
H -1.1307417 1.5318344 -1.4385829
H 2.6090515 0.6662498 0.69875264
H -1.3830554 -1.5616711 1.2099199
