10

N -1.2268984 -0.71145916 -0.29558206
C -0.62777805 -0.008279585 0.69471854
O -1.1201882 0.19910961 1.7841002
C 0.76466167 0.55851454 0.38172883
C 1.3068126 0.1941549 -0.92620695
N 1.6877655 -0.121357836 -1.9704757
H -2.1433263 -1.0953157 -0.11567567
H -0.7873312 -0.882911 -1.1847706
H 0.7041766 1.6478184 0.46251917
H 1.4421058 0.21972586 1.1696442
