10

N 0.15858881 1.2631612 -0.28751197
C -0.032958668 -1.1246855 0.0034354667
O 0.87551105 -0.1734556 -1.9646363
C -0.59378153 -0.6430009 1.3023355
C 0.39458248 0.09781764 -0.8684931
N -0.6964454 0.5161807 1.5600891
H 0.818513 -1.783719 0.1902691
H 0.45337102 2.0575871 -0.8508478
H -0.7941908 -1.7174305 -0.51099336
H -0.58318985 1.5075446 1.4263535
