11

C 0.4551374 0.75378215 -0.6452447
C -0.20354913 -0.18154542 0.2193518
C 0.19680989 -1.5649376 0.61320865
N -1.788351 1.4689195 0.43962067
N -0.09549711 1.9016074 -0.83623654
N -1.3142872 0.43262088 0.63332945
H 0.40205726 2.538063 -1.4491309
H -0.52263576 -2.3188775 0.2730861
H 1.3968152 0.44166708 -1.0971463
H 0.31209093 -1.6712441 1.6964676
H 1.1614096 -1.8000554 0.15269424
