9

O -0.9315197 -1.1303403 -1.9687128
C -0.4080001 -0.6210024 -1.0169904
N -0.8982365 0.31964108 -0.14194964
C 0.063465685 0.62845314 0.8197797
C 1.1299183 -0.123775534 0.5285176
O 0.8712966 -0.8926588 -0.5828734
H -1.8228798 0.7032354 -0.22890997
H -0.104138315 1.3435925 1.6071666
H 2.1000938 -0.22714497 0.98397225
