12

N -1.67385325 -0.24597610 0.93210417
C -0.47579020 0.41559623 1.53678207
C -0.90310869 -0.62759554 -0.01776558
C 0.09879123 -0.12179252 -1.77369628
N 0.92694986 0.35277723 -0.77572624
C 0.45475787 -0.25605152 0.45520282
N -1.00250835 -0.70666278 -1.41329162
H -0.55142523 1.49754605 1.40445018
H 0.36560649 0.05003718 -2.81454253
H 1.90584668 0.51428460 -0.96006850
H 1.12462142 -1.02390815 0.84726901
H -0.26988801 0.15174561 2.57928257
