12

N -0.9248522 2.0799785 1.7883476
C -0.85514504 1.2750711 0.9646951
C -0.76109576 0.22303614 -0.06744566
C 0.39712012 0.47428462 -1.0857223
N 1.4866719 -0.41125718 -0.6801995
C 1.0020365 -1.1959817 0.19691835
N -0.3463951 -1.0567563 0.5087477
H -1.7321763 0.13640969 -0.559897
H 0.07499081 0.21219473 -2.0980115
H 0.72501135 1.5169187 -1.0943941
H 1.5721302 -1.9884883 0.6733536
H -0.63829666 -1.2654097 1.4536078
