12

N 1.0752965 0.11971829 -0.6440839
C -0.4171262 -0.0180345 1.6082525
C 0.21557695 -0.5939008 0.28352278
C 0.25879893 0.5220014 -1.682596
N -1.0243667 0.4596981 -1.4970434
C -1.0816607 -0.050243754 -0.19308728
N -1.6955129 0.26853684 0.88556814
H 0.0469258 0.92250174 1.9146756
H 0.3841605 -1.672568 0.2931947
H -0.49829754 -0.717817 2.4464266
H 0.70785636 0.918983 -2.5907974
H 2.0283494 -0.15887536 -0.8240323
