11

C 1.42103 0.7918962 -1.2883167
N -0.7731287 1.8410531 -0.7007378
C 0.29105985 1.5318761 -1.1066238
C -0.85516834 -1.0221437 1.3428762
N -0.28199315 -0.10203623 0.37729064
H -0.6200703 -0.6888761 2.3554375
H 1.5264959 0.18317097 -2.1786351
H -0.45897537 -2.0388494 1.1954406
H -0.59599626 -0.420839 -0.5375602
H -1.9472566 -1.0884223 1.2256587
H 2.2940028 1.0131701 -0.6848306
