11

C -0.20512778 1.0877485 0.5623516
N 0.39155364 0.23331241 1.2100625
C 0.30181542 -1.4052263 -0.567011
C -0.8187575 2.0931516 -0.013989628
N 0.44235945 -1.101739 0.8482361
H -0.71836466 -1.165095 -0.8820033
H -0.29075176 2.7514153 -0.6943258
H -1.8647354 2.290933 0.19649197
H 1.2928901 -1.4682438 1.2485557
H 0.46530992 -2.4754097 -0.7112142
H 1.0038086 -0.8408466 -1.197154
