11

O 1.9551606 0.36953425 0.6425411
C 0.96564204 -0.21177015 0.2048838
C -0.038368095 0.19692197 -0.7312489
N 0.24155486 -1.3399186 0.64178795
C -0.9787035 -0.7774491 0.009547143
O -0.14057776 1.7636184 -0.3596321
H 0.5469614 -2.2939024 0.5145608
H 0.7169308 1.8684759 0.12878619
H -0.09273819 2.2228947 -1.2091792
H -1.5498732 -1.4577112 -0.6219878
H -1.6259887 -0.34069347 0.77994084
