11

O 1.1996621 0.8885464 -1.1723901
C 0.2987509 -1.0809222 0.46193764
C -0.8542753 0.6076642 0.20033075
N -1.1053332 -0.68171614 0.5975218
C 0.6199594 0.425348 0.40261856
O -1.5394868 1.4952655 -0.25733584
H 1.6143342 1.2743702 -0.2971167
H -1.9570262 -1.2150062 0.63872325
H 0.49443406 1.5134671 -1.4452592
H 0.50890374 -1.6328709 -0.4591196
H 0.72007704 -1.5941459 1.3300896
