10

O -0.83279604 1.8249422 -0.91857475
C -0.24653341 0.7224607 -0.44026816
C 0.19737357 -1.1804465 0.5224292
C -0.8645424 -0.30436227 0.2574908
N 1.3894405 -0.65196913 -0.070209496
N 1.0762496 0.5286387 -0.57868093
H -1.9056804 -0.39624622 0.52542996
H 1.1437573 -0.67449045 1.2118307
H 0.18183784 -2.21809 0.834631
H -0.13910675 2.3495624 -1.3440784
