9

N 0.38859943 -0.09720329 -0.9438336
C 1.329766 -0.0160923 0.29308242
C -0.08365461 -0.512605 0.38756925
C -1.1917907 0.2998137 0.87651753
N -2.023512 0.97882354 1.3045269
H 0.6055941 -0.8258458 -1.6146508
H -0.263108 -1.5810211 0.49288455
H -0.08889564 0.7033673 -1.3486078
H 1.3270011 1.0507629 0.55251145
