9

N -0.18489448 0.51959120 -0.86436036
C 1.17259497 -0.21339631 -0.65872372
C -0.08718123 -0.64112804 0.03641650
C -0.39345236 -0.31129100 1.42366762
N -0.56638443 -0.04896129 2.53600046
H 1.72352082 0.44629572 0.02448797
H -0.62812438 0.37993125 -1.76549558
H -0.42862328 1.40044520 -0.42000750
H -0.60745580 -1.53148667 -0.31198511
