9

O -1.536499 -2.1248531 -0.52607006
C 0.7327398 1.5349172 0.38135162
C -0.41624627 -1.700849 -0.4205749
N 1.0587866 0.2403728 0.061445385
C -0.11852123 -0.284563 -0.07019483
N -0.54368395 1.7802721 0.43659744
O -1.1280499 0.56328565 0.13248076
H 0.48811948 -2.3163831 -0.571784
H 1.4633545 2.3078003 0.5767485
