9

O -0.20541795 -1.7516571 -0.19625787
C -1.3258666 0.66352016 1.1422907
C 1.1871245 -0.35132077 -1.1330913
N 0.6906407 0.5973078 -0.4057739
C -0.20707858 0.410928 0.50923175
N 0.7443119 -1.6806262 -0.969775
O -2.3558822 0.6039318 1.7343115
H -0.5189139 1.6726465 1.1524975
H 1.9910822 -0.16473046 -1.8334332
