9

O -2.5760093 0.6727361 0.29175025
C -1.631181 0.09684863 0.76190627
C -0.30073896 0.043228813 0.09388578
N 0.76123255 -0.5485766 0.5456045
C 1.6612097 -0.27784932 -0.45506057
N 1.1859134 0.42485863 -1.4409875
O -0.12859188 0.64439577 -1.0803026
H -1.6604359 -0.44022685 1.7259842
H 2.6886015 -0.6154153 -0.44278046
