13

C 0.2690013 -0.43306506 -0.66435134
C 0.5823536 -0.16956913 0.7736074
N 1.7084095 0.09039905 1.3615427
O -0.33352745 -0.15683496 1.6922339
C -0.9263567 0.40952694 -1.1232363
O -2.128967 0.013252134 -0.51468813
H -1.058402 0.27690208 -2.2010732
H -0.7097417 1.4747779 -0.9465869
H 2.6080003 0.09299058 0.8997231
H 1.1556265 -0.23670459 -1.2754446
H 0.01122801 -1.4938619 -0.76531136
H -1.9773504 0.028537616 0.44075936
H 0.79972595 0.103649125 2.3228254
