9

C 1.07600265 -0.49390685 -1.50681145
C 0.28139992 0.05657232 -0.63873749
C -0.52665261 0.62989257 0.22432628
C -0.80519230 0.04738971 1.55644674
O -0.32728484 -0.98156060 1.97436901
H -1.02184548 1.56529805 -0.02733034
H 0.69969513 -1.21441229 -2.22881801
H 2.13603690 -0.25520124 -1.52391327
H -1.51215930 0.64592829 2.17046838
