9

C -0.489615 0.038599342 0.22789724
C -0.46467832 -1.2730024 0.5693834
C 0.89585304 -0.6897883 0.7523476
C -0.9976256 0.7125972 -0.9975498
O -2.1132896 0.5557505 -1.4201211
H 1.2301414 -0.38048115 1.7437267
H 1.6815194 -1.0225142 0.075266495
H -0.2610204 1.3827238 -1.4896255
H 0.5187152 0.67611533 0.5386747
