10

N -0.32189044 -1.3685236 -0.08359314
C -1.1284051 -0.15601003 -0.1294536
C 1.0539839 0.47907978 0.13330166
C -0.17740762 0.99575776 0.017443452
C 0.89356995 -0.98207164 0.062015865
H -1.6833799 -0.12609482 -1.0755092
H 1.9954295 1.0026621 0.25451437
H -0.46172988 2.0408056 0.025408696
H -1.8800168 -0.1882801 0.6695445
H 1.7098465 -1.6973248 0.12632743
