11

N 1.94656990 -0.60347826 -0.02790355
C -0.54660167 -0.59036219 -0.33414820
C -1.52285490 0.43799579 0.15340361
C -0.69583476 1.52673208 0.80485777
C 0.65403143 -0.14541472 0.02647854
O 0.55328537 1.10159948 0.69076759
H 2.11589514 -1.31098163 -0.72534476
H -0.77319662 -1.50955973 -0.85325291
H -2.14399440 0.89666562 -0.62796583
H -2.23040780 0.06819904 0.91012571
H 2.64310842 0.12860462 -0.01701806
