11

C -1.1179007 1.8380339 0.17006022
N 0.23343952 -1.3638295 -0.27439237
C -0.59983724 -0.43339676 -0.22153842
O -0.3053067 0.81432295 0.3721558
C 1.5891061 -1.2042043 0.22599865
O -2.1054585 1.7093536 -0.6486967
H -1.6134262 -0.52116746 -0.59867066
H 2.279499 -1.4125742 -0.5973085
H 1.7559135 -1.9614846 0.99703306
H 1.8110927 -0.21366245 0.63998765
H -1.9271214 2.7486088 -0.06462846
