11

C -0.77149373 0.8784154 1.5464655
N 0.5855379 0.51620406 1.1774089
C 0.8341767 -0.057237037 0.093797415
O -0.14500128 -0.39102837 -0.83671385
C 0.25139815 -1.0241313 -1.9672511
O 1.375984 -1.3338549 -2.2415702
H -0.78658974 1.9518139 1.7557577
H -1.0150797 0.3616539 2.4797714
H -1.5362601 0.646797 0.79625726
H 1.8383838 -0.3388668 -0.20763291
H -0.63105595 -1.2097658 -2.5962908
