10

O 0.13162519 -2.140825 -0.04338499
C 0.33124083 0.104231484 -1.1313816
C -0.012136928 1.3454483 -0.39133683
C 0.027230667 -0.79816204 -0.107279316
N -0.6019542 1.1326073 0.86721116
N -0.5187469 -0.1660532 0.96786565
H 0.53396684 -2.4134483 -0.8798722
H -0.81545466 -0.6126035 1.8289294
H -0.19951653 2.3132067 -0.85234827
H 1.1237459 1.2355987 -0.25840297
