10

O -1.6720847 -1.3793665 -0.3335776
C 1.2869245 0.46035156 0.23584493
C -0.5604801 -0.6311188 -0.12051739
C 0.7564366 -0.9240505 0.097565256
N -0.7848023 0.7504325 -0.116074175
N 0.2314331 1.4822803 0.08281602
H -1.3753936 -2.2991488 -0.29942134
H -1.691151 1.1893443 -0.25720263
H 1.7484365 0.6483841 1.2149086
H 2.060681 0.702892 -0.5043416
