10

O 1.0232204 1.6005286 -0.5553053
C -1.1410232 -0.9786737 0.6676595
C -0.6069384 0.32997987 0.85012364
C 0.2976359 0.5448836 -0.16529445
N -0.4862668 -1.522929 -0.44391784
N 0.42427123 -0.58867943 -0.8822668
H -0.36531112 -2.0567317 0.6339058
H 0.8110939 2.3483932 0.018337633
H 0.92989284 -0.7127618 -1.744223
H -0.88657486 1.0359906 1.6209807
