9

O 1.9946345 -0.010758555 -0.8371568
C 0.36511075 -0.5464838 0.91982365
N -0.25727096 0.3442166 -1.1613613
O -1.4102551 0.2056594 -0.43603358
C 0.72835934 -0.037172005 -0.40256786
C -1.0242898 -0.2402952 0.8224519
H 1.9998516 0.31691745 -1.7482059
H -0.55374646 0.62694085 1.441625
H -1.8423936 -0.6590248 1.401425
