9

O -1.2543372 0.033462506 -1.6157118
C -0.5109127 -0.13304794 -0.5138627
N -0.6756419 -1.1468891 0.2883061
O 0.25759247 -0.9769654 1.2959573
C 0.94971424 0.14202826 1.054765
C 0.5273183 0.7452155 -0.07803054
H -1.882771 -0.7021624 -1.6674228
H 1.7145549 0.38535506 1.7786478
H 0.87448263 1.6530036 -0.54264826
