17

C -1.5289092 2.2390954 0.13842411
N -0.662454 1.177717 -0.34245726
C -0.11243754 0.3177308 0.5930398
O -0.22563072 0.52010787 1.7959614
N 0.6026463 -0.74164146 0.08107013
C 1.0452348 -1.7885835 0.9811983
C 0.832712 -0.9369029 -1.3377177
H -2.462683 1.8617108 0.57642764
H -1.0066175 2.8083587 0.910715
H -1.7641255 2.906689 -0.6934526
H -0.9382596 0.77420306 -1.2244753
H 0.5275781 -2.7372172 0.77981853
H 0.8244161 -1.4725646 2.0002453
H 2.1245751 -1.9580077 0.8787518
H 0.99856627 0.026663728 -1.8320217
H 1.7397836 -1.5356145 -1.4671838
H 0.0056048483 -1.4617445 -1.8383436
