17

C -0.24410167 -0.051388595 1.7094969
N -0.92777205 -0.73132294 -0.90281606
C -1.8831981 -0.2967361 -2.3235147
O 1.0563489 0.10680872 -1.6627371
N 0.6581339 0.15210275 0.5891828
C 0.33340794 -0.12630497 -0.71322507
C 1.9907913 0.6463152 0.8752072
H -1.2595905 0.28103438 1.4659878
H 2.521872 0.7495358 -0.07125613
H 2.5334918 -0.057850547 1.5188336
H -0.272732 -1.097222 2.0455284
H 1.9420066 1.6209886 1.3726602
H -1.11792 -1.389269 -1.7765523
H -1.2164516 0.45942634 -2.7383802
H -2.7346222 0.18174323 -1.8305459
H 0.101984456 0.5614506 2.545447
H -1.4816486 -1.0093114 -0.103317015
