12

C 1.0737267 0.1928679 0.78115624
C -0.31841633 0.59139335 0.3517514
N -1.0198373 1.5477786 0.8121332
N -0.90677816 -0.1704004 -0.6662166
C -0.39367107 -1.247498 -1.3426093
O -0.99574953 -1.840315 -2.2087796
H 1.4169471 0.8618147 1.5748534
H 1.7820474 0.25796986 -0.051882427
H 1.0937972 -0.8327908 1.1659693
H -0.5145791 2.046664 1.5406977
H -1.8411411 0.121313 -0.9300636
H 0.6236545 -1.5287973 -1.0270096
