12

C 0.51689094 1.00784293 0.04315539
C -0.44120576 -0.94486393 0.88830586
N 0.51221137 0.03660101 1.12353255
N -0.86313158 -0.77965198 -0.42380189
C 0.01844619 0.14188641 -1.12345283
O -0.82816675 -1.78084609 1.67339130
H 0.62192569 0.32933269 2.08247489
H 1.51379140 1.41423480 -0.13862802
H -1.21446164 -1.60680190 -0.88168553
H -0.17847521 1.83568078 0.23489149
H -0.51479578 0.72673391 -1.87659172
H 0.85697144 -0.38014871 -1.60159137
