12

C 0.6674463 0.3982235 -0.82505727
C -0.30217448 -0.7908263 -0.752265
N -1.0697916 -0.44646403 0.4343699
N 0.8295669 0.7031019 0.58608186
C -0.30121115 0.3234682 1.2965947
O -0.5647855 0.607824 2.4431698
H 0.21394853 1.2339323 -1.3741865
H 1.6145874 0.13238755 -1.2986236
H -1.6783922 -1.1224037 0.87023467
H 0.2494854 -1.7305115 -0.62216955
H -0.93349516 -0.8669242 -1.6406653
H 1.2748156 1.5581924 0.8825162
