9

O 1.72429252 1.15064730 -0.80603197
C 1.72474278 0.06756155 -0.26535159
C 0.52455042 -0.63423272 0.24190219
C -0.67684300 -0.10888000 0.14576177
C -1.87070897 0.39524738 0.05756932
H 2.67035903 -0.49256707 -0.10979195
H -2.26765817 1.03131022 0.84454538
H 0.66456492 -1.60955985 0.70221040
H -2.49329906 0.20047333 -0.81081368
