9

O 1.9105722 0.21813987 1.1175822
C -0.6934407 0.0536196 -0.08650334
C 0.41970605 -0.33074117 -0.6711021
C 1.7319843 -0.22343197 0.00468918
C -1.8021324 0.42980373 0.47610354
H -2.1651185 1.4472262 0.36324525
H 2.5820544 -0.59214175 -0.606512
H -2.38397 -0.2612886 1.0805308
H 0.40034452 -0.7411858 -1.6780336
