9

O 2.5017464 -0.31101286 -0.054001104
C 1.4269841 0.21885219 -0.13271192
C 0.20999551 -0.23408249 0.6654345
C -1.0256331 -0.09429097 -0.10510806
C -2.0114207 0.03914098 -0.778396
H 1.2532154 1.0983038 -0.78530306
H 0.16245584 0.3952982 1.563487
H 0.37408832 -1.264 0.9988481
H -2.8914313 0.15179129 -1.3722496
