11

N 1.3674784 -0.66785365 2.5916727
C 0.6599822 -0.67546934 1.6800263
C -0.2427881 -0.6541121 0.51497585
C -0.53175336 0.7422129 -0.07370565
C 0.24239051 0.22030136 -1.2903718
O 0.4035164 -1.0779004 -0.68411815
H -1.1218517 -1.265116 0.74524856
H -1.5915523 0.93269575 -0.2448897
H -0.07991931 1.579867 0.4590172
H -0.31614944 0.16382116 -2.228983
H 1.2106465 0.7015536 -1.468872
