11

O -2.013906 0.98827857 1.3780103
C -1.0806174 0.6114173 0.72389305
N -0.9755978 -0.5507728 -0.0151075795
C 0.407373 -0.8068667 -0.3576305
C 0.94044477 0.6307453 -0.32380098
O 0.07959802 1.3121718 0.58867997
H -1.6045152 -1.2962725 0.23644818
H 0.90640336 -1.4434867 0.3834758
H 0.5127774 -1.2619289 -1.3457079
H 0.8602835 1.1093432 -1.3048757
H 1.9677569 0.7073711 0.03661509
