9

C -0.22268261 0.30477962 -0.26971266
C -0.68435067 1.239784 -1.2836562
C 0.5193329 -1.373633 1.6062287
C 0.1875297 -0.48049638 0.553758
O 1.6776907 -1.9843014 1.5797439
H -1.3150401 0.72660726 -2.0130272
H 0.9358884 -2.160064 2.4720967
H 0.16757572 1.6787097 -1.8121004
H -1.265944 2.0486145 -0.8333308
