12

O 0.79979837 -1.9954892 1.2889459
N 1.0451642 -0.62010515 1.2396842
C 0.3266147 -0.06722751 0.35999754
C 0.19223267 1.3724146 -0.06259305
N -1.0143316 0.98593247 -0.83198225
C -0.7687195 -0.4597119 -0.60385853
H 1.0314386 1.7264483 -0.6744653
H -0.97362536 1.253542 -1.8086389
H -1.6184436 -0.99551314 -0.17150164
H -0.3987667 -1.0131373 -1.4755955
H -1.0223062e-05 2.095481 0.73527235
H 1.3786485 -2.2826343 2.004735
