11

C -1.1338845 1.1436913 0.6013583
C -0.21935958 0.028989838 0.20828412
C 0.7634129 -0.013027464 -0.7452612
N 1.2477806 -1.2758683 -0.6540226
N 0.6140695 -1.9760365 0.28856903
N -0.27193007 -1.1961612 0.81305873
H -2.1796188 0.85641086 0.4577277
H -0.93879974 2.0395768 0.005507279
H -1.0050036 1.3989881 1.6580149
H 1.1411946 0.7128456 -1.4493822
H 1.9821388 -1.7194093 -1.1838542
