11

N 0.61904055 -0.89722854 -0.25618085
C -0.43261868 -1.2479614 0.5701178
O -0.76630396 -2.3481798 0.9103836
C 0.47457713 0.47072932 -0.7061434
C -0.36292455 1.02637 0.45137042
O -1.0608144 -0.10757672 0.9669392
H -0.0583467 0.5353987 -1.6634849
H 0.27102885 1.4343268 1.2455198
H -1.089341 1.7783133 0.14105763
H 0.96901506 -1.6250308 -0.85776895
H 1.4366877 0.98083943 -0.8018104
