11

N -0.047096655 1.6991774 0.3590678
C 0.63721794 0.61529696 0.6794021
O -0.15057036 -0.3570921 1.3920898
C 0.07788972 -0.44462922 -0.83112335
C -0.8510566 -0.88123924 0.2886898
O 1.8224958 0.2835234 0.39776576
H -0.93500686 -1.9715155 0.3519058
H 0.6068636 2.3036642 -0.14382988
H 0.9240885 -1.0789292 -1.0659125
H -1.8337088 -0.4117276 0.1716822
H -0.2511162 0.24347068 -1.5997375
