11

N -0.031709947 1.9277034 -2.1586657
C -0.4176257 0.8844182 -1.8309416
C -0.21104182 -0.95738804 -0.4118342
C 0.7269502 0.4060988 1.446345
C -0.3145498 -0.16915627 0.8563088
O -0.8804094 -0.27746424 -1.5260953
H -0.73480374 -1.9121327 -0.35592917
H 1.734014 0.31434044 1.0454385
H 0.8320972 -1.1270298 -0.69726765
H -1.3151758 -0.07628622 1.2750447
H 0.6122548 0.9868965 2.357597
