11

N 0.4658785 0.33799633 -2.927335
C 0.3615405 0.6306167 -1.8147612
C 0.2080354 0.9667617 -0.39370334
C -0.5989124 -0.08749905 0.34287703
C 0.059298873 -1.182021 1.0540446
O -0.47591427 -0.062024523 1.7502326
H -0.28284407 1.9431298 -0.30820036
H 1.1965618 1.0587236 0.06964089
H -1.6138927 -0.23636614 -0.023884475
H -0.46612123 -2.1236832 1.2044638
H 1.1463696 -1.2456342 1.0466254
