10

N 1.4517025 0.6365028 -0.08214242
C 0.07760741 0.10629865 0.019896986
N -0.8338784 0.8703098 0.5663852
N -1.9437469 0.08793302 0.5082499
N -0.25325093 -1.105656 -0.4106823
C -1.5585123 -1.052635 -0.06713367
H 1.7673229 0.69134456 -1.0520602
H 2.1176903 0.061652683 0.43667167
H -2.24484 -1.8705144 -0.24234931
H 1.4199053 1.5747638 0.3231643
