10

N 0.39355272 -1.9457872 0.32915163
C -0.1939551 0.20380121 -1.0927387
N -0.03280511 1.515459 0.87994385
N 0.15151975 -0.91140693 0.99467456
N -0.5334949 0.13067266 -2.2595446
C -0.024031231 0.26807964 0.22480719
H 0.21734034 0.14624539 -2.94469
H -0.9698237 1.8192054 1.124219
H 0.52320737 1.4772248 1.725634
H 0.46848992 -2.703494 1.0185432
