10

N 1.2516055 -0.06920009 1.0107495
C -0.64200693 -0.99077487 0.3344382
N 0.8992586 0.6702055 -0.030389871
N -1.0467268 0.805233 -1.3665679
N 0.4316477 -1.133026 1.2061145
C -0.28307915 0.2034669 -0.3920953
H -0.59617954 -0.98685807 1.7189033
H -0.5284125 1.3958359 -2.0013928
H 2.205983 -0.07296202 1.3402317
H -1.6920897 0.17807984 -1.8199914
