10

N 1.00361204 1.39788978 0.33265655
C 0.16158756 0.28948362 0.11432920
N -0.18870261 -0.59993652 -2.23868298
N -1.10250838 -1.35699406 0.99617001
N -0.57625753 -0.23870949 1.20579571
C 0.05304270 -0.23828484 -1.10165249
H 1.33473983 1.41024706 1.28973818
H 0.54120421 2.28062837 0.14059498
H 0.38511948 -1.35860631 -2.59724771
H -1.61183732 -1.58571745 1.85829852
