10

N 1.3711234 -0.013609404 0.883029
C -1.578347 0.37168756 -0.8930556
N -1.2104174 -0.8939866 -1.0951861
N -0.06674325 -0.98527724 -0.38851476
N -0.75853497 1.1274151 -0.100537874
C 0.13683753 0.20108296 0.15628822
H 2.1648068 0.5316867 0.5541487
H -2.4805145 0.7763313 -1.3320847
H 1.126133 -1.1753384 0.32114846
H 1.2956562 0.060007878 1.8947648
