10

N 0.9782148 1.4178874 0.55608773
C 0.25842535 0.31864896 0.100311264
N 0.24483187 -0.024154717 -1.1812665
N -0.4738583 -1.1399218 -1.185975
N -0.938769 -1.5489786 -0.028673025
C -0.4860384 -0.6351849 0.82511973
H 0.50347257 1.9457799 1.2742584
H 1.2566993 2.021509 -0.20639245
H -0.6449839 -1.652194 -2.0357873
H -0.69799435 -0.703391 1.8823173
