9

O 0.97861707 0.21640321 -0.93985428
C -0.50466639 -0.84373359 0.32425555
N -0.51649729 0.51913182 0.62670723
C 0.41527742 -0.99943241 -0.63265415
C 0.40127262 1.18538705 -0.14893293
O 0.68619768 2.35133142 -0.17835660
H 0.77336025 -1.85822404 -1.17529999
H -1.14611594 -1.55771429 0.81493896
H -1.08744525 0.98685086 1.30919611
