9

O -1.1748868 -0.5714104 -0.42541608
C 0.9472553 0.07534493 -0.41078803
N 0.3222917 0.48363146 0.768933
C -0.99426675 0.09058044 0.76913714
C 0.011878498 -0.5643827 -1.1193314
O -1.8498244 0.25703683 1.5948415
H 0.7320227 0.9987419 1.5287458
H 1.9841247 0.27849275 -0.62439746
H 0.02140527 -1.0480353 -2.0817244
