13

C 0.80122447 -0.80153984 0.14838894
N 0.55809313 0.6775155 0.45381972
C 0.05647381 1.4925435 -0.6610087
O -1.6413176 -0.98181975 0.08134873
C -0.4137916 -1.3963453 0.6570844
O 1.8976071 -1.1837606 -0.16126843
H 1.3896871 1.0894312 0.8814205
H -1.82546 -1.5353903 -0.68035233
H -0.35224667 -2.4721246 0.84805924
H -0.87399095 1.0394994 -1.0083224
H -0.24971594 0.05412547 1.2216032
H -0.13582338 2.5073595 -0.30658877
H 0.78926027 1.5105063 -1.474184
