10

O 1.3938448 0.6383733 1.0472492
C -0.8005431 0.3469391 -0.8257487
C -0.12358488 -0.76961505 -0.085511595
C 1.2579856 -0.4665786 0.3344998
N -1.2017579 0.019608634 0.51841605
H 2.3290064 0.0060479706 0.78877515
H -0.35849455 -1.7958562 -0.3477323
H -0.21322876 1.24926 -0.98772585
H -1.5084187 0.092838705 -1.611661
H -0.7748087 0.6789822 1.1694392
