9

N -0.118847646 -0.8481205 0.45089805
C 0.35882363 0.37718147 0.8591841
C 0.27525806 1.178151 -0.24511641
N -0.23732781 0.48240647 -1.3120196
C -0.46248555 -0.72687817 -0.8613988
H -0.20139715 -1.6779987 1.0142008
H 0.7022073 0.54815584 1.8687581
H 0.5537609 2.2188277 -0.34255365
H -0.86999166 -1.5517254 -1.4319527
