9

N 0.3347341 0.3145353 -1.064566
C 0.8992144 -0.699763 -0.23225223
C -0.8310272 -0.062703244 0.80883515
N 0.18097131 -0.9347742 0.8808407
C -0.73073924 0.7241591 -0.34021422
H 1.4017527 0.4671333 -0.35567087
H -1.3297617 1.5664287 -0.6580954
H 1.657755 -1.3684582 -0.62618095
H -1.5828991 -0.0065578273 1.5873038
