11

N -1.123303 -1.0307364 0.32759452
C -0.06826216 -0.9851043 -0.40435243
N -1.1527361 0.17546791 1.0367514
N 0.45799413 -1.9600306 -1.2156454
C -0.111535735 0.8295243 0.66115266
N 0.3591963 2.0292351 1.1263003
O 0.6438596 0.17010096 -0.25999144
H 0.7957901 -1.6225914 -2.1078417
H -0.3116441 2.4710689 1.7392126
H 0.69971204 2.6542797 0.40761322
H -0.189071 -2.7312133 -1.3107938
