10

N -3.22154483 -0.76434502 -0.66486574
C -2.09340057 -0.66073928 -0.43307550
O -0.28763651 0.77208039 -0.05647582
C -0.65917712 -0.60060699 -0.13622856
C 1.01350489 0.98091119 0.20884020
N 1.83110534 0.03642124 0.37677450
H -0.09275393 -1.10700172 -0.92329013
H -0.45325948 -1.10940221 0.81046935
H 1.20016039 2.05796413 0.24727165
H 2.76300219 0.39471812 0.57058017
