11

O -0.00118932 -0.42694400 -1.35055256
C -0.37670691 -0.90522786 -0.02929580
C 0.74619766 0.00482392 -0.23456393
N 0.11740890 1.08388795 0.47675329
C -1.11254980 0.24913031 0.63980306
O 2.09816536 -0.02949833 -0.29946690
H -1.35248650 0.08037056 1.69294187
H -0.46829147 -1.97512724 0.11323505
H 2.33312036 -0.62071493 -1.02319223
H -1.98877317 0.61259332 0.09340655
H 0.00510483 1.92670672 -0.07906832
