11

O 0.8723552 0.8402396 1.6944728
C -0.507565 0.6995107 -0.43288887
C -0.46245837 -0.8512621 -0.8014387
N 0.23346333 -1.0981565 0.4999428
C 0.20127818 0.20320767 0.78607905
O 0.51915485 1.4304842 -0.8442999
H 1.0307745 -1.7002062 0.6666454
H 0.18528831 -1.0200118 -1.6611089
H -1.5228803 1.1323925 -0.3805942
H 0.86384577 1.7483747 1.3383346
H -1.4132563 -1.3845731 -0.86514425
