9

O -0.71988726 0.9691794 -0.052542727
C 0.8792018 0.923367 0.14230087
C 1.6261255 -0.1793268 -0.010233699
C -0.86880565 -0.37252983 -0.47551864
C 0.35683918 -0.74185735 0.31653842
H -1.8159094 -0.78791606 -0.1168576
H 1.094558 1.9248325 0.48870647
H 0.19293985 -1.2548928 1.26617
H -0.7450622 -0.48085606 -1.5585631
