9

O 0.95640755 -0.76259756 -0.09774521
C -0.10833439 -0.44608855 0.8139484
C -0.29306754 0.98790246 -1.1198269
C -0.8355199 0.6460613 0.10811878
C 0.78325236 0.07070348 -1.1194329
H 0.35242632 -0.1585827 1.7666175
H -1.7122798 1.0984313 0.56725585
H -0.6886352 -1.3634876 0.96808964
H 1.5457506 -0.07234225 -1.887025
