9

O 1.19448389 0.04972790 0.27669492
C 0.85443829 0.59480755 -0.88755430
C -0.04255356 -0.43017887 0.82847969
C -1.03768888 -0.05930039 -0.21647982
C -0.49361544 0.58645081 -1.31463737
H 1.72232617 1.00485018 -1.40687977
H -0.18031248 0.06280862 1.79828600
H 0.07189817 -1.50763140 0.99618900
H -2.08897555 -0.30153429 -0.07409843
