11

C 0.18828864 0.83878535 1.6485697
C 0.634336 -0.40866327 -1.4102048
C -0.04900439 -0.32337913 -0.091211
O 0.7524239 -0.17295803 0.9976908
C -1.4358624 -0.47280976 0.096394576
N -2.5844448 -0.646924 0.16803333
H 0.13063297 0.75525105 2.7274845
H 0.88439935 0.5836143 -1.8086351
H 1.5741785 -0.96151406 -1.2923185
H -0.09305642 1.7279989 1.1015366
H -0.001890923 -0.91940117 -2.1373405
