11

C -1.54027168 1.20014397 0.58403378
C 0.21144786 -0.19567467 -0.14720845
C 1.56775038 -0.68420766 0.24160505
O -0.38430771 0.65050096 0.67660405
C -0.50341772 -0.56671508 -1.29880365
N -1.14219062 -0.83738811 -2.23920981
H -1.78858246 1.86766840 1.39595741
H 1.87158416 -0.18763077 1.16730252
H -2.18195003 0.98294352 -0.26182145
H 1.57700457 -1.76738540 0.41291456
H 2.31293349 -0.46225505 -0.53137386
