11

O 1.368635 1.199749 -0.4221114
C 0.69652057 0.21481064 0.30975887
C -0.7942278 0.52522284 0.5852037
N -1.113545 -0.71211004 -0.12699941
C 0.16779304 -0.97058696 -0.5223716
O 0.6660735 -1.7695818 -1.2755377
H 1.9746668 0.75098765 -1.0246451
H 1.2491887 -0.09952507 1.2052087
H -1.0965239 0.52615154 1.6342186
H -1.1271546 1.4328674 0.078475185
H -1.9914265 -1.0979851 -0.44119975
