9

N -0.7627173 0.054724984 -0.68906814
C 0.24031268 -0.37584862 1.3321183
C 1.004241 0.42391986 0.44735968
C -0.88284904 -0.5614172 0.53410405
N 0.365166 0.71730655 -0.8309333
H -1.3666852 -0.022023983 -1.496039
H -1.8044376 -1.1019322 0.72671616
H 1.3048735 -0.1419233 -0.6566607
H 1.9020963 1.0071938 0.6324028
