9

N 0.64399374 -1.0295601 -0.906145
C 0.2910537 0.27019238 1.038931
C -0.07101864 0.21727128 -0.9157332
C -0.84280306 0.45499447 0.3631875
N 1.1661601 0.11475652 -0.13804737
H -1.8740187 0.66665965 0.6077889
H -0.12843353 0.7767669 -1.8428457
H 0.18990274 -1.6917436 -0.2763043
H 0.6251636 0.22066255 2.069168
