9

N 0.33673281 0.37960954 -0.81646052
C 1.21356914 0.10705618 0.20005161
C -0.72230680 -0.41647055 0.90900897
C 0.60322448 -0.38173975 1.35576523
N -0.87353343 -0.02351000 -0.38855561
H -1.70573555 0.26437254 -0.88296808
H 0.51483591 0.46758191 -1.80659062
H 2.26053473 0.31295660 -0.00177032
H -1.62732120 -0.70985645 1.43151924
