9

N -0.092828654 1.97752 -0.49987042
C -0.016496297 -1.1851219 0.9623783
C 0.6742626 -0.46579355 -0.274717
C 0.2774697 0.82844335 -0.34445488
N -0.4210895 -1.4594824 -0.35416427
H 1.6752913 -0.7465673 -0.5842058
H -0.05126669 2.6345222 0.2711636
H -0.74453264 -0.5457865 1.4978987
H -1.3008099 -1.037734 -0.67402804
