9

N -0.26061084 1.79709987 -0.93358825
C 0.78944765 -0.35178627 0.00905150
C -0.09930559 -0.97885280 1.16745176
C 0.22825835 0.79699845 -0.44118996
N -0.06655226 -1.55421622 -0.11322690
H 1.86846938 -0.46206059 0.02412972
H -0.54344765 2.56999485 -0.34154988
H -0.87539648 -1.39028131 -0.72395507
H -1.04086278 -0.42689607 1.35287719
