11

O 1.63436434 1.09616598 -1.97946903
C 0.88159933 0.25611022 -1.54969870
C 0.32930711 0.34504102 -0.14628086
C -0.60711698 -0.73102134 0.27816488
N 0.65729479 1.29852677 0.63249645
C -1.34005967 -0.60797889 1.52604776
N -0.35232040 -1.36487504 1.64519648
H 0.56933866 -0.61572118 -2.15976525
H 1.32642722 1.90576056 0.14533910
H -2.13969178 -0.17606852 2.10922008
H -0.95914254 -1.40594001 -0.50125123
