11

O 0.43876663 0.43080637 -2.7226667
C -0.4004845 -0.56590885 0.7069075
C -0.4021169 -0.090946615 2.0794833
C -0.013562781 -0.18948542 -1.7911692
N 0.4940104 -0.9411994 1.8877983
C 0.21839577 0.25799903 -0.36692557
N 0.9151904 1.2921069 -0.10557667
H -0.6099722 -1.1127299 -1.9384558
H 1.2611963 1.6871324 -0.9876357
H -0.78927696 0.55898756 2.850029
H -1.112146 -1.326762 0.38821158
