10

N 1.1630747 1.4860065 -0.7433114
C 0.38228813 1.7096584 0.16801411
C -0.096387096 -0.39989015 0.22464223
N -0.56826335 -1.6697712 0.33776128
C 0.22455148 0.27144948 -0.9420087
O 0.03263152 0.3293878 1.2846842
H -0.6889043 -2.0072122 1.2810699
H -0.26327255 -2.3494723 -0.33679911
H -0.08581378 0.097219795 -1.9597509
H -0.09990483 2.5326242 0.68569845
