11

N 0.39250334 2.46773349 -0.14261512
C 0.18701151 -1.01711065 -0.51949121
C 0.13449997 1.22448443 -0.04475486
C -0.85819205 0.67507757 0.91766454
C -0.65500234 -0.77862588 0.73937096
O 0.74926178 0.26026869 -0.80428772
H 1.00256375 -1.73251303 -0.38941239
H 1.10569553 2.61559953 -0.85961656
H -0.06741176 -1.00451106 1.65186344
H -0.42490858 -1.33332958 -1.37165697
H -1.56602122 -1.37707327 0.82293587
