11

N -1.7674845 -1.1333963 -1.2516171
C 0.32459486 0.40438405 1.0915724
C 1.1994073 0.2902329 -0.14271438
C -0.81324446 -0.5742149 -0.6403553
C 0.5804667 -0.3924569 -1.1995181
O -0.92379844 -0.10833016 0.6559119
H 0.8121632 0.9595801 -1.1075704
H 0.19766101 1.4285415 1.4544178
H -2.5894413 -1.1898967 -0.647896
H 0.7198796 -0.21689488 1.9054245
H 2.259796 0.5324512 -0.11765556
