11

N -1.36683112 0.45740248 -1.02461157
C -0.11237139 0.82740076 -1.06892668
C 0.40598736 0.21424920 0.21676251
N 1.65297070 -0.51893574 0.07177488
N -1.81840301 -0.40512725 0.02711797
C -0.76662923 -0.59167426 0.72911607
H -2.07960603 0.69357819 -1.69824701
H 2.18162447 -0.09758288 -0.68321165
H 0.48704631 1.08398448 0.90282952
H 2.21320323 -0.44615494 0.91333352
H -0.79699140 -1.21714002 1.61406250
