11

N -1.4848367 0.77762544 -0.56376576
C -0.23558229 0.40061432 1.1195616
C -0.52869105 0.18782306 -1.2349218
N -1.3710932 0.9256059 0.85721064
N 1.0449164 -1.3803933 -0.0970678
C 0.4882469 -0.037887752 -0.13376825
H 0.13379547 0.36380872 2.1381218
H 2.005875 -1.3628682 0.2248482
H -2.3506696 1.1264442 -0.94621915
H 1.046941 -1.7478343 -1.0415257
H 1.2510982 0.74706197 -0.3224738
