11

N -0.23102851 1.2249314 1.3463215
C -0.08076263 0.2707409 0.32860693
C -1.1503909 -0.2055421 -0.53060323
N 0.9410992 -0.75460136 -1.401225
N -0.40967214 -0.827298 -1.4917601
C 1.1741729 -0.08652032 -0.3088969
H 0.23111707 0.9811518 2.2125738
H -1.2078018 1.4298556 1.5064117
H -0.6614649 -0.8174432 0.5892824
H 2.183688 0.1352296 0.012958854
H -0.78895605 -1.3505044 -2.2636702
