11

O 1.7524239 -0.9192559 -1.8301954
C 0.7314776 -0.26882586 -1.9178103
N -0.0353095 0.08506631 -0.85513943
C 0.3399387 -0.32219455 0.48990676
C -0.57890946 0.25176755 1.470691
C -1.3427384 0.72426283 2.2688441
H 0.32378018 0.10099424 -2.8774624
H -0.87630606 0.6226893 -0.9954864
H 0.3306545 -1.4165645 0.56397
H 1.3663756 0.0024355035 0.69354105
H -2.0113873 1.139625 2.9891407
