11

N 0.32995614 2.9269032 0.45461786
C -0.2063966 1.9100349 0.35399082
C -0.8542948 0.60090387 0.20505314
C 0.00921819 -0.3551735 -0.5981529
C 0.9137882 -1.2925361 0.06540878
O -0.33327776 -1.7197801 -0.4707638
H -1.8241861 0.7389741 -0.28621656
H -1.0484474 0.17352146 1.1942003
H 0.24108209 -0.032757528 -1.612711
H 1.7970508 -1.6550812 -0.45791772
H 0.9755072 -1.2950096 1.152491
