11

N -2.2294574 -2.1272943 -0.028180819
C 0.13424051 -1.0228611 0.2233024
C -1.1811262 -1.6532342 0.08051789
C 0.0552027 0.49728873 0.2168844
C 0.9953156 1.6588573 -0.8829612
O 1.3433096 1.0361713 0.33761576
H -0.26891774 0.76632404 -0.87524754
H -0.65594345 0.95131946 0.912504
H 0.79437715 -1.3442034 -0.5877874
H 0.5881631 -1.3382338 1.1701958
H 0.424836 2.575866 -0.5668435
