11

N 1.850078 -0.109084345 -1.4343526
C 0.6006678 -0.12960015 -0.868619
N -0.5429916 -0.24442793 -1.443782
N -1.4999257 -0.06814822 -0.4335649
C -0.83729 0.089681625 0.6541721
N -1.3005507 0.1921618 1.9433473
O 0.51634777 0.07427686 0.47620183
H 2.5471995 -0.64803386 -0.9390095
H 1.8041761 -0.34940585 -2.4154017
H -0.83198017 0.89218456 2.501569
H -2.305731 0.3003955 1.9594395
