11

N -1.1875646 1.5310571 -1.0752239
C 0.611967 -1.0180075 0.2692845
N 0.27102143 -0.3545085 1.3769581
N 0.15446433 -0.43131077 -0.81015843
C -0.49845734 0.6468672 -0.27391464
N -0.4603294 0.75679827 1.0354565
O 1.3327069 -2.1372125 0.34112886
H 0.48159564 -0.57041156 2.335729
H 1.4484507 -2.4566386 -0.5659366
H -0.79481214 1.6120261 -2.001327
H -1.3590423 2.4213405 -0.6319964
