10

O 1.6404048 0.8440144 0.10739709
C -0.04914862 -1.0080097 -0.8047018
C -0.6516315 0.9709581 0.622069
N -1.9815619 -0.58671457 -0.3213723
N -1.7705139 0.36216542 0.36132196
C 0.47645387 0.14082316 0.17280345
N 0.60582256 -1.2516764 0.29559106
H -0.56733435 1.9828213 0.9805703
H -0.0712302 -1.673651 -1.6624361
H 2.3687396 0.21926919 0.24875732
