10

O 1.4490553 -1.271135 0.8696962
C 0.54716104 -0.45499578 0.32187742
C 0.88330704 0.89355004 0.085267924
N 0.00773022 1.7118416 -0.45482135
N -1.2057227 1.2589706 -0.77880245
C -1.467526 -0.012566993 -0.5347388
N -0.6395192 -0.9187812 0.010325394
H 1.0279936 -2.1426547 0.9510856
H 1.858661 1.2946503 0.3355313
H -2.4611402 -0.35887894 -0.8054213
