11

C 1.6510284 0.1623679 -0.6909851
C 0.39641824 0.7895198 -0.15157358
C -0.60823303 0.025866132 0.53129804
O 0.24139667 0.78177756 1.3010222
C -1.6418338 -0.7454503 0.65672415
N -2.5409906 -1.5900582 0.7392389
H 2.4863822 0.86402327 -0.6079599
H 1.8914433 -0.75175756 -0.14041273
H -3.479195 -1.1864808 0.7083649
H 1.5148286 -0.08610694 -1.7475052
H 0.08875532 1.7362992 -0.5982114
