11

C 1.2983637 0.63726115 0.5740499
C 0.10145796 -0.2914583 0.41316286
C -0.7477501 0.049751494 -0.78434175
O -0.54292494 0.9464223 -1.5602871
C -1.9295462 -0.8303402 -0.9751503
N -2.8453689 -1.5189471 -1.1140344
H 1.9480577 0.59700084 -0.30475426
H 1.8817334 0.3439723 1.4506191
H 0.9759954 1.6741097 0.70229036
H -0.5523864 -0.26853335 1.2944858
H 0.41236833 -1.3392389 0.30395934
