12

N 0.86096126 -1.7377468 0.5681596
C 0.2666025 -0.54406226 0.16872156
C 0.929368 0.3957152 -0.6279432
N 0.34679827 1.5100964 -1.0627819
C -0.9200888 1.6967609 -0.69839203
N -1.652807 0.88260716 0.05843317
C -1.0568804 -0.22671443 0.48558694
H 1.8696856 -1.7378589 0.6078746
H 0.4455169 -2.1794012 1.3757081
H 1.9655219 0.2364541 -0.92475504
H -1.4025784 2.6028006 -1.0546912
H -1.6520996 -0.8986509 1.1040798
