12

N -0.21558611 0.44344088 -0.29820538
C 0.79229057 -1.7291456 0.762463
C 0.47848493 -1.8671004 -0.60385156
N -0.776136 1.5963463 -0.9010223
C -0.04154139 -0.66739637 -1.0815535
N 0.6506815 -0.63954 1.5575478
C 0.14119974 0.42355815 1.0020397
H -0.36316714 -0.4838355 -2.1045547
H -1.6867566 1.7760788 -0.48089918
H -0.16558605 2.3901565 -0.72890806
H -0.021721743 1.3327464 1.5726149
H 1.2078383 -2.575309 1.3043293
