11

C -1.0623506 0.17723358 0.4707514
C 1.0078839 -1.2481477 -0.6882042
N 0.7658632 1.1368419 0.066018775
C -0.5525153 1.5195352 0.64912474
C 0.33461124 -0.07337103 -0.075599186
O -1.5519176 1.2857852 -0.30989084
H -1.7669795 -0.4347954 1.0198554
H -0.6927472 2.2806137 1.4086291
H 2.028592 -0.9856065 -0.97257066
H 1.0325342 -2.0894048 0.010986917
H 0.45702565 -1.5686839 -1.5791012
