9

N -1.718368 -1.2673827 -1.064358
C -1.1013914 -0.61282265 -0.24850401
C -0.40962148 -0.009071713 0.7055799
N 1.5373983 0.4032191 -0.64385736
C 0.9607731 0.46863222 0.48857543
H -0.8866338 0.12809399 1.6707877
H -2.3026464 -0.7621172 -1.7258413
H 1.4340361 0.88394225 1.3883597
H 2.4864535 0.7675066 -0.5707421
