11

N 0.18172802 -1.3698013 -0.30021322
C -1.1355324 0.37735343 0.30194673
C -0.79618704 0.445203 -1.0150294
C -0.060391594 -0.47956598 0.750411
N 1.1159025 -0.023384368 1.1770374
N 0.2789209 -0.3880683 -1.3438555
H 1.0968045 -1.7967743 -0.19791226
H 1.0102931 0.8124347 1.7537599
H 1.2395146 0.25761533 -0.25340968
H -1.1587241 1.1423712 -1.7603204
H -1.7723283 1.0226165 0.88758564
