11

N 1.0337414 -0.017094638 -1.5518749
C 0.27937543 -0.026855221 -0.37414333
C -0.37730783 0.96707124 0.31938532
C -0.8747245 0.31657952 1.4707611
N -0.5702905 -0.9660311 1.4964591
N 0.13637388 -1.1562157 0.36056903
H 1.0288393 0.898081 -1.9832484
H 0.73249114 -0.7062975 -2.2298253
H -0.48583892 2.0026186 0.031247031
H -1.4544158 0.7439731 2.2785416
H 0.55175644 -2.0558293 0.18212907
