10

C -1.46648306 0.27584595 -0.64240376
C -0.16846021 0.41952338 0.07304424
O 0.59139249 -0.63010191 0.14955220
C 1.78746547 -0.67797552 0.67547208
H -1.43278737 0.71048802 -1.65126995
H -1.72348782 -0.78371582 -0.73980925
H -2.27564830 0.77885473 -0.10004486
H 2.24940391 -1.65344704 0.65592796
H 2.22193257 0.21130520 1.10571122
H 0.21667236 1.34922303 0.47382028
