10

C -0.24722134 -0.2083966 -0.09097015
C -0.17902923 -0.19474386 1.3257526
O -1.2378054 -0.942653 -0.44143993
C 0.5471954 0.5266054 -1.1161803
H 0.47202224 0.027488392 -2.0874946
H 1.5910661 0.6331554 -0.8098755
H 0.2678975 0.6342586 1.873038
H -1.4276046 -0.8335375 0.8314173
H 0.09085399 -1.1749988 1.7339685
H 0.122625284 1.5328217 -1.218216
