10

C -1.1605021 0.062113862 -0.5720546
C 0.3491747 0.18913636 -0.50950354
O 1.0028825 0.538229 -1.464123
C 0.989435 -0.15279405 0.82146484
H -1.5031768 0.16392063 -1.6052744
H -1.4878272 -0.8978439 -0.15970127
H -1.6165216 0.85093296 0.036645237
H 0.9174746 -1.2329912 0.9895157
H 2.0431337 0.13827835 0.8163678
H 0.46592724 0.34101802 1.6466634
