11

O 1.3675843 -1.2054073 1.7353723
N 1.3369523 -0.22199781 0.74720734
C -1.1075556 -0.5274306 0.072740845
C -0.1175723 0.9801374 -1.0002408
O -1.4437089 0.41419044 -0.96958524
C 0.2886327 0.029764384 0.08700859
H -1.1962184 -1.5699091 -0.2552575
H 0.37683892 0.8354539 -1.9660664
H 2.287995 -0.40563074 1.2892637
H -1.6836952 -0.3712458 0.99200857
H -0.10925295 2.0420752 -0.7324516
