9

O 1.7453251 0.80002725 0.009408231
C -0.7384041 -1.7504554 -0.002647619
C 0.51305974 0.2516812 0.015816493
O -1.7815124 0.57885885 0.24246243
C -0.6659873 1.0716062 0.27244073
N 0.24157688 -1.0017834 -0.17219208
H -0.47549242 2.1310675 0.5073377
H 2.4081926 0.09676292 -0.005493823
H -1.2467577 -2.1777654 -0.86713207
