9

O 1.2629266 -0.89445245 -0.81526446
C -0.9847646 1.7634711 -0.714912
C 0.32435432 -0.25367695 -0.07550166
O -0.6852571 -0.29756957 2.0624406
C 0.14240037 -0.74481606 1.3070276
N -0.39882264 0.69869703 -0.5076507
H 1.4526514 -0.39430308 -1.6192951
H -1.959653 1.6765307 -1.2155035
H 0.8461646 -1.5538808 1.5786588
