10

C 0.19401324 0.58326364 1.010965
O 0.28558475 -0.6852905 1.2749033
C -0.22147502 2.0332813 -0.715765
O -0.46562988 2.3186316 -1.8453901
C 0.11957723 -1.7293357 0.28214976
O -0.083741784 0.7191956 -0.3257857
H 0.2554914 -2.6529987 0.8402765
H 0.8774352 -1.6294829 -0.49927405
H -0.08036384 2.7219121 0.13162713
H -0.8808912 -1.679177 -0.15370692
