10

C 0.4355334 0.005349731 1.0221021
C -0.3443526 0.876938 0.10248985
N -0.45562446 -1.1134762 -0.96826714
C -1.1066271 -0.030051824 -0.8171909
C 0.7170028 -0.87888545 -0.13066992
N 1.0994384 0.5598094 -0.14497265
H 1.5214773 -1.6060704 -0.14277267
H 0.7839062 0.10194681 2.0409782
H -0.591475 1.9067429 0.331639
H -2.0592792 0.17769703 -1.2933357
