10

C -0.1530612 1.0810733 0.1472168
C -1.1125703 0.18592812 -0.6556825
N -0.70641494 -1.0055021 -0.9093908
C 0.50027126 -1.1650908 -0.29058364
C 0.76721776 -0.2126795 0.6892944
N -0.17339326 0.66936713 1.4016993
H 0.09211603 2.103883 -0.17039555
H 1.7494721 -0.20396365 1.1656878
H 1.1882695 -1.938952 -0.61188453
H -2.1519072 0.4859365 -0.7659611
