10

C -1.2209953 -0.3815721 -0.34883586
C -0.0930679 -0.8143249 -1.0447116
N 1.1344092 -0.43458918 -0.69794375
C 1.220463 0.38074008 0.34824422
C 0.09244263 0.81408656 1.0447673
N -1.1337181 0.43386564 0.6992681
H -2.2167811 -0.7018381 -0.6452649
H -0.18353862 -1.4813318 -1.8990673
H 2.2167392 0.7027133 0.6456546
H 0.18404754 1.4822503 1.8978893
