11

O -0.3809867 1.06206 1.1668978
C 1.1050754 0.17337763 0.027815636
C 0.18371728 -1.0203104 0.002105661
O 1.1323886 0.7909451 -1.0860562
C -1.2639642 0.61819744 0.38194987
N -1.0360124 -0.35136387 -0.49044132
H -2.2600248 1.0764198 0.37488532
H 1.8773506 0.3892404 0.75844747
H 0.06425764 0.49224392 -1.3768185
H 0.06939394 -1.4793599 0.9843261
H 0.50880516 -1.7514502 -0.74311155
