14

C -0.16212581 1.2294564 -1.9503484
N 2.101785 -0.5752461 1.9047732
C -0.92378247 -0.35643816 0.07937305
O -1.8056685 -1.0052865 0.57813907
N -1.177584 0.42491394 -1.2000611
C 0.8864756 -0.7852018 1.6135702
N 0.34878582 -0.18992203 0.47885904
H 0.16329288 -1.3987563 2.1593142
H 0.9249338 0.40414497 -0.121770754
H -1.9661825 1.0379122 -0.9774754
H 2.3411314 -1.0654036 2.7613683
H 0.6438395 0.5410629 -2.220152
H 0.1976299 1.9992429 -1.2596912
H -1.5725307 -0.26047918 -1.8458985
