11

N -0.62770706 -0.71414644 -1.9410585
C -0.32386425 -0.279457 -0.79921263
C 0.70877594 -0.87508744 0.13346946
O 0.44021797 -0.24320166 1.3719066
C -0.13228807 0.98959106 1.0488416
O -0.8492668 0.80836296 -0.17027546
H -1.3320524 -0.12854092 -2.3829556
H 0.59356177 -1.9540015 0.24272217
H 1.720548 -0.64752436 -0.23061189
H -0.8309275 1.2800748 1.834209
H 0.63300216 1.7639304 0.8929649
