11

N -1.0079478 0.7820538 1.4920912
C 0.752692 -1.1144745 -0.8152047
C -0.320366 0.83481276 -0.6417972
O 0.3358735 -1.0197341 0.6133348
C -0.2689581 0.14573944 0.6369148
O -0.077020966 -0.28529269 -1.5337422
H -1.3088996 1.4347975 0.42715433
H 0.48399362 1.5795038 -0.72189206
H -1.0200715 0.59486437 2.489061
H 1.8043687 -0.796677 -0.83327264
H 0.62633604 -2.1555934 -1.1126473
