11

N 0.23645303 1.4074315 -1.392269
C -0.7237063 -0.89921314 1.118314
C 0.18636066 0.40563414 -0.4279651
O 0.64128715 -1.2461854 1.0025827
C 1.0735756 -0.5323285 -0.10540343
O -0.9019496 0.3326279 0.44099444
H 0.36581478 2.3236244 -0.9740208
H -1.3345718 -1.6773956 0.63951147
H 2.0438 -0.76918447 -0.512002
H -0.9836535 -0.77558404 2.1707652
H -0.6034102 1.4305735 -1.9605072
