10

N -1.5374395 -1.4190571 0.7525849
C -0.680978 -0.6410024 0.2677721
C 0.14328438 0.33570138 1.0092462
C 0.9250385 0.9640644 0.13682678
C 0.63815665 0.4187105 -1.2178851
O 1.1047527 0.69175667 -2.2803593
O -0.34397316 -0.5509521 -1.0723199
H -1.9695842 -1.9936478 0.02895189
H 0.059760906 0.45381352 2.0811362
H 1.6609817 1.740613 0.29404593
