10

N 0.6704697 -0.73516697 -1.3397791
C 1.3276919 -0.43496448 -0.19290164
C -0.96102846 0.6035309 0.22326039
C -1.0261303 0.17343457 1.4668239
C 0.28230366 0.5213988 -0.5914945
O -1.106673 -0.20064527 2.5669487
O 2.0863576 -0.8657253 0.6216686
H -1.8495528 1.0764484 -0.18030643
H 0.5042345 1.4121433 -1.1770319
H 0.07232728 -1.5504541 -1.3971882
