12

O -1.044625 -0.30104935 1.4299021
C -0.15537924 0.56338125 0.8437715
C -0.27100226 0.5783079 -0.7461881
O 1.0540287 -1.3364818 0.08550565
C 1.0135742 0.0030006932 0.21053426
O -0.69327843 -0.6361374 -1.4152592
H -0.6604353 -1.1819139 1.2960885
H 1.9360572 0.5634808 0.08297922
H 0.06753251 1.4132855 -1.3568202
H 0.34419093 -1.5109794 -0.66508657
H -1.4444189 0.28161186 -1.0280689
H -0.14624457 1.5634938 1.2626418
