12

O -1.6216434 0.068722926 -0.4944525
C 0.33943143 -0.36640602 0.8836933
C -0.5629236 -0.8114943 -0.24325436
O 0.8021151 1.018712 -1.0931821
C 0.8117261 -0.27006888 -0.54582554
O 0.018313292 0.86549306 1.4619879
H 1.5900625 -0.9220917 -0.9328296
H -0.7963018 -1.8635604 -0.3779363
H 0.78748333 -1.0840123 1.5644749
H 0.8165617 1.6261282 -0.33500108
H -0.91451657 1.0176558 1.2362666
H -1.2703078 0.7209215 -1.1239413
