11

N -0.7311143 -0.7577094 1.5621479
C -0.19510156 -0.13094437 0.42150697
C -0.13029088 -0.6122008 -0.869545
N 0.40405005 0.39370227 -1.6173917
N 0.69288796 1.4830059 -0.9086617
C 0.33060908 1.1790377 0.33132544
H -0.21631184 -0.5324141 2.4021757
H -0.7748055 -1.7628949 1.4628307
H -0.41856307 -1.5594945 -1.3003479
H 0.58719105 0.3917964 -2.6067169
H 0.45144904 1.9081153 1.1226764
