11

N -0.31421596 -1.6729667 -0.20546894
C 0.13555308 0.77544385 0.11410208
C 0.17196615 -0.36636728 -0.7910106
N -0.7160703 -1.8203287 0.9274054
N -0.7273104 1.6674953 0.6684276
C 1.329976 0.3354541 -0.18482813
H -0.07064533 -0.32771742 -1.8555996
H 2.400463 0.3770794 -0.11120657
H -0.26676577 -2.4455466 -0.9091623
H -1.6109692 1.2508844 0.9338865
H -0.3319813 2.2265701 1.4134547
