10

N -0.34043255 0.3061411 1.7125487
C 0.3402924 -0.34593412 0.7893345
C -0.4049738 0.33715248 -1.4709651
N 0.840097 0.15836966 -0.90788215
C 0.9903624 -1.0233308 -0.061817795
O -1.4971954 0.14662021 -0.9603282
H 0.16143112 1.0213144 2.224133
H 1.5071664 -1.9517508 -0.2531793
H -0.32301313 0.7999695 -2.4698858
H -1.2737346 0.55144835 1.3980422
