10

N -0.28377187 1.1233774 -1.3122194
C -0.60013056 0.18857954 -0.40283144
C -1.3108411 -0.46876547 0.46892115
N 0.086705096 -0.9834502 0.055274483
C 1.1985141 -0.75171155 0.86340827
O 2.0137668 0.11674549 0.6596243
H 1.3123239 -1.507894 1.6608491
H -0.90108943 1.9190645 -1.3746114
H 0.7025057 1.3519571 -1.3270035
H -2.2179825 -0.9879027 0.70858824
