10

C -0.49875155 -1.7640523 0.22389328
N -0.3554199 -0.07662547 -0.993304
N -0.769134 -1.3527435 -1.0149435
C 0.11859238 0.16226797 0.21912986
N 0.07010033 -0.8422966 1.0631979
N 0.5381572 1.5433885 0.11920519
H -0.71803004 -2.772376 0.54688644
H 0.03581397 2.1879735 0.72346324
H 0.0381184 1.2280337 -1.0973014
H 1.5405531 1.6864303 0.20977315
