11

C -0.9596407 0.05966459 0.026414292
N 2.2408226 -0.23430972 0.64197433
C 1.0253069 -0.1427873 0.3628681
O -0.004438208 0.4868215 1.0273215
C 0.15127018 -0.6458568 -0.7525398
O -1.5193037 1.108049 -0.6771798
H -2.0989087 1.6094525 -0.08698945
H -1.7123988 -0.58154243 0.500636
H 2.4467587 0.25242528 1.5153652
H 0.07513299 -1.7308643 -0.8391474
H 0.35539865 -0.18105215 -1.718723
