10

N -1.0493975 0.26377752 0.3607368
C -0.66044575 -0.96758693 -0.09927582
C 0.66770583 -0.8866165 -0.43718436
C 1.0947074 0.44472963 -0.170143
C 0.011352154 1.130013 0.32204825
H -1.9729856 0.494719 0.6825769
H -1.358269 -1.7911172 -0.1469712
H 1.2746493 -1.6880877 -0.83389705
H 2.0866232 0.84561545 -0.32532147
H -0.09394022 2.1545534 0.6474309
