10

N -0.10005407 -0.2069015 -1.3162745
C -0.17559423 0.67050266 0.8365077
C 0.7223275 -0.39390486 0.8017644
C 0.7031107 -0.9136117 -0.49543473
C -0.70939326 0.78149825 -0.45774788
H 1.3065244 -0.772711 1.6316568
H 1.2127427 -1.7918143 -0.8709208
H -0.42146325 1.3001283 1.681636
H -1.2921374 -0.2768033 -0.8967416
H -1.2460629 1.6036173 -0.9144452
