10

C -0.36299139 0.12686401 0.91466448
C -0.43497259 -1.24037233 -0.68467284
N 0.42712515 -0.12476839 -1.04644772
C 0.97865249 0.32628763 0.26083970
N -0.93393054 -1.14820667 0.47448650
C -0.13846744 1.01798317 -0.28261349
H -0.33839981 2.01727538 -0.64288523
H -0.59107169 -2.04763980 -1.39183092
H 2.00425054 0.56948448 0.49793603
H -0.61019420 0.50309251 1.90052350
