10

C -0.89636946 -0.8690781 0.004427988
C 0.5027354 1.2059689 -0.8213099
N 0.57138455 -0.07159772 -1.2027112
C 0.47329715 -0.91030276 -0.011964361
N 0.0697663 1.4686253 0.39826804
C -0.3378309 0.23625769 0.862069
H 0.71465135 1.9955156 -1.53845
H -1.7017964 -1.5804218 0.13747358
H 1.232705 -1.6400999 0.2674998
H -0.62854284 0.16513313 1.9046971
