9

O 2.0157747 1.5315578 -0.86270547
C 0.23079607 0.14611532 -0.16182245
C 1.2623216 0.63085073 -1.1183012
N -0.8955479 0.055942874 1.6877139
C -1.2911794 -0.8310104 0.82056385
N -0.61401516 -0.81797594 -0.36772472
O 0.12474446 0.7189988 1.0333512
H 1.2641549 0.08171434 -2.075591
H -2.0970492 -1.5161936 1.0445157
