9

O -1.00770771 0.59993162 -0.47428086
C -0.99417015 -0.44801326 1.35718730
C 0.19046871 0.07164135 -0.24370517
N -1.79566446 0.25023606 0.60537991
C 1.28555808 0.27988620 -1.22923969
N 0.27467738 -0.59394021 0.86781802
O 1.13922725 0.90955300 -2.24235419
H -1.32838224 -0.87166671 2.29413800
H 2.23599355 -0.19762812 -0.93494326
