10

O 1.9341812 -0.5211001 1.5783327
C 0.97798973 -0.15536302 0.98122066
C 0.15148453 -0.6165119 -0.21431248
C 0.52384645 -0.048299994 -1.5029811
O 0.19941168 0.9392015 1.2441477
C -0.72374696 0.63020426 0.18253005
H -1.7129824 0.34269497 0.545257
H -0.34402463 -1.5855323 -0.10146506
H -0.2251758 -0.4665643 -2.2067785
H -0.78098387 1.4812709 -0.5059507
