10

O -0.36927916 1.35433693 -0.67061971
C 0.70308004 0.40209367 -0.90531502
C -1.22552878 1.06466018 0.28111846
C -0.78855086 -0.25430280 0.87411090
O 1.09984774 -1.70070362 0.24800323
C 0.44686318 -0.70031553 0.10555712
H -1.59734578 -0.99208464 0.81235421
H 0.64742795 0.05300107 -1.93963350
H 1.66039732 0.90731826 -0.74933058
H -0.57691178 -0.13400347 1.94375496
