11

N 1.0871058 -0.9071678 -1.1294441
C 0.18654966 -0.2682874 -0.25168997
C -0.9981707 -0.6825082 0.28032708
N -0.4291041 1.6207366 1.063823
N -1.97892 -0.47017103 1.0000459
C 0.4101931 1.0722147 0.26994348
H -1.7416772 -1.6260084 0.28924635
H 0.71434283 -1.1074326 -2.0467691
H -0.14219828 2.5501683 1.3506465
H 1.3389693 1.5345702 -0.083234936
H 1.5529095 -1.7161146 -0.74289405
