10

N -2.8570163 -1.0827779 0.20494261
C 0.10570703 0.7050832 -0.39235133
C 1.1267749 -0.32418978 0.17676689
C -1.9737842 -0.32739127 0.31180838
C -0.9833858 0.6302117 0.5952919
H 1.4162319 -0.070640355 1.1993493
H 0.7227301 -1.340009 0.16275527
H 2.0190709 -0.2989821 -0.45327076
H 0.5834635 1.6884054 -0.38802803
H -0.15979238 0.4202905 -1.4172645
