10

N -0.69458004 0.96390864 -2.82230224
C 0.35856105 0.53286036 0.49974955
C -0.67384152 0.95166269 -1.65544829
C -0.81787710 0.99179586 -0.25691391
C 0.07109356 -0.99075210 0.64755185
H 1.32712299 0.67047589 0.00478132
H -0.88840938 -1.16664623 1.13965225
H 0.38452095 0.96772410 1.50245195
H 0.07130857 -1.49511781 -0.32247516
H 0.86210090 -1.42591162 1.26295303
