11

O -0.28025442 1.6442894 2.1638525
C -0.21455218 0.86838865 1.2337439
C 0.75215006 1.0186645 0.13649863
C 0.7802904 0.1352366 -0.8716251
N -0.103217795 -0.9209303 -0.877614
C -0.99251413 -1.0438838 0.15304802
N -1.0855869 -0.24683678 1.1519153
H 1.43415 1.8588753 0.16570948
H 1.4651403 0.18673025 -1.7118444
H -0.098298684 -1.5968934 -1.6219866
H -1.6573066 -1.9036402 0.078302555
