11

O -1.08048182 -1.03541952 1.11293342
C 0.87423656 1.15817435 0.67745370
N -0.22278032 -0.34528057 -0.92394786
C -1.22186469 -1.00118470 -0.21908210
C 0.82806252 0.45528699 -0.45312862
O -2.14450680 -1.52860209 -0.78650679
H 0.04348787 1.25404855 1.36996322
H -0.23541648 -0.65257064 1.38644621
H -0.27716149 -0.52088182 -1.91803974
H 1.66700123 0.48581002 -1.14995587
H 1.76942374 1.73061957 0.90386470
