11

O -0.1250196 -1.7555699 -2.1110356
C -0.42784622 0.9243004 1.2358063
N 0.39156458 0.100019425 -0.9269319
C 0.38981003 0.9551149 0.18466987
C -0.059257876 -1.2073157 -1.0402877
O -0.3838126 -1.8220232 0.105236374
H 1.1538333 1.7303137 0.10948138
H -1.2702427 0.24621177 1.3331134
H 0.80314773 0.4388825 -1.7858748
H -0.17450704 -1.270222 0.87154216
H -0.29766968 1.6602882 2.0242805
