11

C 0.6685489 -0.43253532 -0.31160936
C 0.26998097 -0.7790249 -1.7013576
O 1.4661876 0.7208894 -0.29230672
C -0.5706743 -0.36341006 0.5549787
C -0.8634011 0.67039776 1.3259364
N -0.059072368 -1.0030833 -2.7860618
H -0.20656748 1.5307556 1.3998768
H 1.3180009 -1.23968 0.04242484
H -1.7652684 0.6813021 1.9315258
H 0.96023244 1.4505492 -0.6732993
H -1.2179669 -1.2361605 0.50989217
