11

C 0.78852848 -1.71647980 0.07941704
C -1.04850027 1.24740907 -0.54554545
O 1.51616055 0.52309876 0.42714833
C 0.45460940 -0.37275528 0.62090948
C -0.87056678 0.07701559 0.04381194
N 1.05687406 -2.73978439 -0.38523318
H -0.24584241 1.97282423 -0.62694822
H -1.68788985 -0.63251935 0.14991094
H -2.01640747 1.53114853 -0.94911654
H 1.69039488 0.59238665 -0.52068656
H 0.36263955 -0.48234380 1.70633223
