11

C -0.4972579 0.7651124 1.0362396
C 1.6310892 -0.32218033 -0.63802135
O -0.39982238 -1.5269985 -0.05447312
C 0.19364215 -0.5801216 -0.8794642
C -0.7492717 0.41080734 -0.29104272
N 2.7484205 -0.11445529 -0.42428967
H 0.5290808 1.016528 1.3110043
H -1.73614 0.46516052 -0.7439728
H -0.47421846 -0.5603936 1.0085053
H 0.04130956 -0.7800334 -1.9455838
H -1.2868319 1.2265747 1.6210984
