10

O -0.27358413 -2.1727889 -0.28575006
C 0.77759385 1.0994949 -0.38373044
N -0.76637286 -0.07959686 0.61483896
C -0.25379947 1.2088299 0.49582544
C -0.011830366 -0.85845864 -0.19355321
N 0.9265478 -0.20682426 -0.81635696
H 0.37843063 -2.524214 -0.909289
H -1.538521 -0.38992733 1.1818821
H -0.67203075 2.0425024 1.0386137
H 1.4335662 1.8809826 -0.7424806
