11

C 0.5113001 -0.96302134 1.5024016
C 0.16648322 -0.12463153 0.3198914
N 0.63464224 1.0335158 -0.009614855
C -0.0340726 1.3582839 -1.1829867
C -0.8804392 0.35988563 -1.4998068
O -0.76354986 -0.6057184 -0.5415055
H -0.3830766 -1.1950896 2.0876915
H 1.216299 -0.41672945 2.1285589
H 0.96611917 -1.9103462 1.1964965
H 0.14916015 2.2877257 -1.7049092
H -1.5828656 0.17612536 -2.296217
