11

C 0.87008690 -1.36717652 1.21314079
C 1.39294873 -0.19810814 1.15244465
N -0.06314470 -0.26625087 0.86461307
C -0.96753207 1.06169612 -0.98011688
C -0.46813054 -0.27645172 -0.50119970
O -0.46267382 -1.28887611 -1.15594052
H -1.80869513 1.39448368 -0.36314061
H 2.14286562 0.56650077 1.26155648
H 0.81220375 -2.42210956 1.41269469
H -0.17420335 1.81055389 -0.87980010
H -1.27372536 0.98573834 -2.02425202
