11

C -1.2269095 1.1643288 -0.40370494
C -0.71120864 -0.13990934 0.14622113
N 0.6103171 -0.042907503 0.66940606
C 1.3143184 -1.3479981 0.74390966
C 1.7248966 -0.5502991 -0.17200041
O -1.3469837 -1.161926 0.21686447
H -0.5773751 1.5059023 -1.2171264
H 2.3570538 -0.17456442 -0.958199
H -1.2085661 1.9360112 0.37291104
H 1.3078947 -2.2171333 1.3768541
H -2.2434382 1.0284953 -0.77513564
