11

C 0.6291533 1.4715327 0.9013215
C -0.6145385 -1.9679543 -0.81501186
N -0.81080854 0.034055717 -0.33109486
C 0.3885426 0.08745986 0.3240723
C -1.1087408 -0.9037467 -1.3231965
O 1.1884018 -0.8257187 0.49132487
H 1.698919 1.6022811 1.0730463
H 0.10870217 1.5421921 1.8626617
H -1.7267565 -0.667352 -2.1825287
H 0.23067199 2.2478473 0.24366295
H 0.016453214 -2.620597 -0.24425787
