10

O -0.045295425 -1.0940533 0.91142553
C 0.116560295 0.28715873 0.6509797
O 1.4990926 -1.1065999 -2.2422695
C 0.73911124 0.6449276 -0.655568
C -1.2220411 -0.3119285 0.7553407
C 1.1451315 -0.28647915 -1.4970492
H -1.8121775 -0.18168612 1.6611372
H 0.48018813 0.86248845 1.5024515
H 0.8821105 1.6831535 -0.92759085
H -1.78268 -0.49698138 -0.15885715
