10

O 0.9544767 2.094242 -1.1622438
C 0.67285997 1.1160259 -0.5495508
O 1.1290715 0.75652176 0.70676833
C 0.501584 -0.5381107 0.5672264
C -0.9657333 -0.36975503 0.5076075
C -0.120547175 -0.1486566 -0.7428374
H 1.0766041 -1.4077951 0.8463562
H -1.5556768 -1.2807513 0.47717386
H -1.4298824 0.47142047 1.0155112
H -0.26275653 -0.6931411 -1.6660116
