10

O -1.5748286 -1.8912647 -0.8170741
C 0.5426775 0.53464985 -0.4162995
O 0.6364593 -0.89892495 -0.60995966
C -0.9664201 -0.89888525 -0.59601897
C -0.93773055 0.47458234 -0.3377557
C 0.89514637 0.23131813 0.9763305
H 1.7268988 -0.42848414 1.208475
H -1.7093455 1.1964453 -0.11440279
H 1.1456374 1.1504725 -1.0844558
H 0.24150552 0.53009087 1.7911608
