10

O 0.35887046 0.84597566 -2.76679447
C 0.76928940 0.83593287 -0.31842821
O -0.28389311 -1.38945805 -0.13605784
C 0.36875623 -0.32415250 0.52798200
C -1.03574586 -0.64926458 0.81664523
C 0.55322261 0.83934547 -1.61987552
H 1.11971796 -0.64208158 1.25131545
H -1.81407391 -0.01364252 0.39890332
H -1.29755510 -1.19524235 1.72166210
H 1.26141137 1.69258790 0.12464782
