11

N 0.36333831 1.12454644 1.21102368
C 0.01598818 -0.08397372 0.44904925
C -1.26570337 -0.53348535 0.61430206
O -1.46655782 -1.26429495 -0.55857096
C -0.42881199 -1.11580568 -1.45471851
O -0.34039639 -1.69840179 -2.49629081
N 0.48118693 -0.22260010 -0.88980253
H 1.25836385 1.08770087 1.70686058
H -0.40126659 1.16575170 1.90050516
H 0.34099169 1.97693392 0.64167466
H 1.44286740 -0.43637124 -1.12403267
