11

N 0.9491765 1.1417159 1.1235241
C 0.12019435 0.32275203 0.35908836
C -1.2033199 0.12823798 0.31183863
O -1.5118434 -0.72716993 -0.73558944
C -0.34921077 -1.0887338 -1.3595295
O -0.2793426 -1.8050511 -2.3210614
N 0.66285616 -0.46815974 -0.6565029
H 1.6202796 0.6206057 1.6750457
H 0.42187345 1.7569805 1.7291237
H -2.0267828 0.4986453 0.89893067
H 1.5961196 -0.37982273 -1.024868
