13

N -0.6027581 -0.86496687 -1.4406254
C 0.43956316 -0.042359974 -0.83873254
C -0.082403675 0.5501322 0.4813003
N -0.5277521 -0.53073514 1.3503858
C 0.9858878 1.3207935 1.1389682
N 1.8208362 1.940858 1.6419168
H -0.5108098 -0.87877756 -2.4519765
H -0.5127529 -1.8260548 -1.1320208
H 0.68428874 0.7839997 -1.5147004
H 1.3628081 -0.60015184 -0.62900084
H -0.8874301 1.2592009 0.23273242
H -1.3462155 -0.94252783 0.9106798
H -0.8232621 -0.16941015 2.2510726
