11

O 1.3714975 1.1997919 -0.4216067
C 0.6970017 0.21443886 0.3091627
C -0.79454225 0.52825505 0.5855815
N -1.1134379 -0.7101231 -0.12775159
C 0.16578817 -0.9701861 -0.52422696
O 0.6661072 -1.7707205 -1.2731661
H 1.975586 0.7480865 -1.0235456
H 1.2515882 -0.100804806 1.2024767
H -1.1007588 0.5276208 1.6337425
H -1.1277508 1.4358715 0.076851256
H -1.9910789 -1.1022303 -0.43751752
