12

N -0.7445712 -1.0229757 -1.0305014
C -0.23333035 -0.6347031 0.27953058
C 0.5703645 0.6647128 0.0849119
O -0.1714622 1.5730081 -0.67830735
C 0.8888502 1.2616627 1.3945488
N 1.14748 1.6828897 2.4378617
H -0.04146698 -1.5307777 -1.5622808
H -1.559871 -1.6162521 -0.9502049
H -1.089381 -0.41207898 0.9281169
H 0.38752136 -1.3917418 0.77627945
H 1.5314522 0.4244472 -0.4016385
H -0.6855855 1.0018086 -1.2783163
