13

C 1.18490543 -0.32747970 0.05368742
C -1.22487263 0.44838439 0.20644627
O -1.67978263 -0.47080406 -0.77968942
C 0.21030013 0.81967461 -0.10633690
O 2.40631597 0.10930515 0.41484949
N 0.98794882 -1.56690519 -0.12076832
H 2.96432980 -0.68261983 0.45735348
H -2.54766532 -0.79069789 -0.51053686
H 0.03172944 -1.72446291 -0.43171916
H 0.26696155 1.18215644 -1.14037578
H -1.28443650 0.00402477 1.21223731
H -1.84244276 1.35787933 0.20151515
H 0.52670873 1.64154503 0.54333724
