13

C 0.12965089 -0.52969307 -0.8083369
C 0.71320677 0.75887185 -0.3132423
O 0.7837865 1.8269668 -1.0147883
C -1.1917639 -0.8325256 -0.09295248
O -1.0143642 -1.043102 1.2911451
N 1.1835655 1.0587771 0.8780793
H -1.9113513 -0.023320807 -0.29285404
H 0.84159404 -1.336425 -0.6028281
H 1.3032206 2.1645074 0.11766197
H -0.019019423 -0.45028928 -1.8885075
H -0.70012474 -0.21294546 1.6677388
H 1.4978768 0.37548643 1.5526351
H -1.6162773 -1.7563086 -0.49375078
