10

C -0.92107417 -0.19079745 -0.10726127
C -0.01332582 -0.69602202 -1.18686402
N 1.19579357 -0.48950475 -0.84344534
C 1.03404403 0.14312528 0.46234884
C -0.21207709 0.93473739 0.56571192
N -0.16314969 -0.38701086 1.16764837
H -1.99632019 -0.31788564 -0.06863061
H -0.30730169 -1.16975144 -2.11799938
H 1.91831732 0.33684333 1.05912985
H -0.53490605 1.83626577 1.06936159
