10

O 0.4632562 -1.42044 1.1014637
C 1.6315362 1.296344 -0.78408
N -0.75918233 -1.3462572 0.9120007
C 0.41844687 0.8698505 -0.59299666
C -1.390285 -0.40692878 0.16020642
N -0.7925337 0.5807012 -0.5100517
H -1.3918693 -2.0347435 1.3399678
H 2.2201443 0.919756 -1.612589
H 2.07071 2.0220127 -0.10985408
H -2.470223 -0.48029542 0.09593269
