10

O -1.4388615 1.2313775 -0.22594479
C 1.4982398 -0.55041766 0.621785
C -0.86017215 0.10175417 0.42230344
N 0.49939832 0.2895949 0.7037383
C -1.3067348 0.014066678 -0.9693958
H 1.3663998 -1.4741864 0.06906644
H 2.4157097 -0.34059587 1.159968
H -0.59684575 0.07612012 -1.7983778
H -2.2362006 -0.5044306 -1.196077
H 0.6590672 1.1567173 1.2129341
