9

O 2.5064437 -0.30508143 -0.046478488
C 1.4280401 0.21887445 -0.13090579
C 0.21132138 -0.23364156 0.6639328
C -1.0245199 -0.09359965 -0.10688621
C -2.0133877 0.039523367 -0.77903354
H 1.2549366 1.0932875 -0.7925099
H 0.16107972 0.39398566 1.5635767
H 0.37239477 -1.2645646 0.99725413
H -2.8963082 0.15121633 -1.3689497
