11

O 0.98880519 1.14633621 -1.83139907
C -0.02829706 0.84941792 -1.25790476
C -0.06776850 -0.12230755 -0.12313412
C 1.07152756 -1.09018643 0.04994936
O 1.04935405 -1.95923813 0.88171810
C -0.81048651 0.29351185 1.09274620
O -1.36435962 -0.61626516 0.18390563
H -1.01913996 1.27474974 -1.51264854
H -0.47598405 -0.13391993 2.03616155
H 1.92484305 -0.92643171 -0.63561127
H -1.26849421 1.28433302 1.11621680
