12

O 0.3462079 0.0023134395 -1.7650576
C 0.6585855 0.08715892 1.1671466
C -0.56211346 -0.3528124 0.45046344
C -0.46780187 -1.1120945 -0.8484985
N -0.17107241 1.0708447 0.4516532
H -0.7101079 1.6618199 1.0771804
H 1.6257082 -0.12378002 0.7149535
H -1.3973471 -0.62760085 1.0970383
H 0.6659889 0.13662402 2.2534215
H -1.4480927 -0.97744584 -1.3537455
H 1.0586035 -0.54177594 -2.106045
H 0.40144113 0.77674866 -1.1385103
