12

O -0.34685183 0.13352939 -1.75987421
C -1.10583219 -0.77134335 -0.59808607
C 1.02492424 -0.29360711 0.81663211
C -0.44377139 -0.20973803 0.63438342
N 0.39592379 0.99509310 0.48269956
H -0.05020333 -0.55983991 -2.35237049
H 0.36921695 1.63671189 1.26927905
H 0.20331243 0.75362261 -1.20474735
H 1.44620454 -0.39978768 1.81349888
H -2.08731613 -0.25714135 -0.67969788
H -1.02343957 -0.28484788 1.55608093
H 1.61783283 -0.74265154 0.02220234
