11

N -0.20818019 -0.98608868 0.68329254
C -0.07172678 0.41114114 0.47456779
C 0.75945616 -0.61635672 -1.28953720
O 0.61146385 -1.59864477 -0.31120295
C -0.62230426 1.35762827 1.23021540
O 0.72792411 0.62251195 -0.59906203
H -0.07197297 -0.64254353 -2.01026701
H -1.16770416 -1.28840279 0.51277494
H 1.72344745 -0.74564741 -1.77741969
H -1.18262502 1.08346642 2.11506419
H -0.49777827 2.40293593 0.97157382
