10

N -0.30351337 -0.64832808 -0.11178466
C -1.60158732 -0.23843215 -0.25961941
O -1.92777999 0.85577442 -0.65308808
C 0.79781960 0.26587263 -0.32377605
C 1.51716143 0.55261603 0.92772081
N 2.09115770 0.74823072 1.90897399
H -2.32591011 -1.03146592 0.00272013
H -0.12630095 -1.55865488 0.28596065
H 0.37018422 1.18930919 -0.72292843
H 1.50876909 -0.13492177 -1.05417865
