12

N 1.9884137 -0.87852585 0.10618632
C -1.0613157 1.1955194 0.5017807
N -0.47010043 -1.1609545 -0.4272482
C -0.7310695 1.360143 -0.754972
C -1.3162488 0.048677847 -0.39065823
C 0.67931366 -1.1371754 0.29870892
N -0.14687647 -1.5959021 1.1334783
H -2.3288996 -0.2381583 -0.69201756
H 2.2511027 -0.30016682 -0.6714361
H 2.5800564 -0.8629436 0.92440027
H -1.1159066 1.5817394 1.5078957
H -0.3284697 1.9877471 -1.536118
