12

N 0.98412424 -0.18651536 -0.29433528
C -0.8253387 -1.6415424 0.9080611
N 1.2796375 2.1194286 -0.20460148
C 0.058298655 -1.250983 -0.24491918
C 0.47698674 1.0275288 -0.0035750312
C -1.4149991 -1.0808252 -0.1099045
N -0.66180944 1.0450425 0.60022503
H -0.8756501 -2.1637223 1.849307
H -2.3398366 -0.7673398 -0.5628648
H 0.8327019 3.0191472 -0.23744291
H 2.020048 1.9637219 -0.86968017
H 0.46583724 -2.0839415 -0.8302696
