12

N 2.1674001 0.3925104 -0.6952303
C 0.88572437 0.16529967 -0.283929
N 0.7039297 -0.8439436 0.5834876
C -0.54038656 -1.0241202 1.0062077
C -1.6074092 -0.23775119 0.58807576
C -1.2943411 0.7663672 -0.32002264
N -0.06187912 0.98168594 -0.768403
H 2.2906363 0.963434 -1.5156593
H 2.831787 -0.34688294 -0.5336768
H -0.69134265 -1.8415656 1.7094167
H -2.618287 -0.40043664 0.94204336
H -2.065832 1.4254028 -0.7123098
