11

N -1.1467891 -0.17406325 1.0710324
C 0.17965767 -0.58733886 0.78077555
C -0.8049903 0.65512556 -0.8956067
N -1.6983843 0.48921612 0.06851725
N 1.750774 0.25581154 -0.56895596
C 0.43931338 0.11141815 -0.457162
H 2.1877906 0.41690907 -1.4705584
H -1.0553969 1.2397836 -1.7695813
H 1.6080827 -0.2581063 0.69916713
H 0.2824363 -1.674252 0.7208838
H -1.7424937 -0.47450367 1.8214884
