11

N -1.0999471 0.3737453 0.26265407
C 1.0990475 -0.1676991 -0.055536065
C -0.26991743 1.0601902 1.1311108
N 0.97680384 0.81767786 1.0196879
N -0.81223667 -1.211544 -1.429011
C -0.32009217 -0.45446202 -0.54585946
H -2.103664 0.4154769 0.21547133
H -0.079897314 -1.7386402 -1.9033579
H -0.6973626 1.7558773 1.8473262
H 1.5802547 -1.0787203 0.31963077
H 1.7270113 0.22809836 -0.86211663
