10

O -0.31640147 -2.48606579 0.09669935
C 0.92081873 0.38634510 -0.57684502
N -0.84796300 0.57000247 1.01810052
C 0.23493397 1.05323820 0.56693686
C -0.45732450 -1.53526576 -0.62603948
N 0.59678819 -0.72648178 -1.08246176
H 0.71832598 1.96122055 0.94666014
H -1.20655100 1.12902224 1.79313447
H -1.41211053 -1.27067608 -1.12031987
H 1.76948339 0.91866111 -1.01586523
