11

O -0.88192225 -0.29368782 -1.6654075
C -0.12173015 0.9337723 -1.8456606
O -1.0916903 0.70042986 0.5667754
C -0.3586372 0.311475 -0.5657011
C 0.4031944 -1.1172642 1.6905729
C 0.04494378 -0.11219016 0.7355403
O 1.08852 0.16681395 1.566801
H 0.83116114 0.81183624 -2.356515
H -0.17792532 -1.2105166 2.6080854
H 0.9880853 -1.9868785 1.3956163
H -0.7239995 1.7962096 -2.1301067
