14

C -0.94392616 -1.8924053 0.5972046
N 0.7183485 1.01386 -0.5875626
C -0.13529179 -0.07213487 -0.6315446
O -0.16746698 -0.7002291 0.5535539
N -0.8106179 -0.503274 -1.6234019
C 1.1111757 1.6335006 0.66809154
H -0.836381 -2.2672508 1.6156682
H -0.6622149 0.06680259 -2.4493794
H -0.5678282 -2.6262136 -0.1222658
H 1.8658473 2.3930604 0.44771543
H 0.58709127 1.6470108 -1.3614553
H 0.27467197 2.1064699 1.1985984
H 1.5592096 0.8860581 1.3246093
H -1.9926174 -1.6852553 0.3701685
