14

C 1.87163218 0.79418928 -0.46436881
N 0.65813555 0.37439236 -1.14710703
C -0.46108820 -0.04858169 -0.45540467
O -0.13585821 -0.42675598 0.79006943
N -1.66249313 -0.12856814 -0.87487526
C -1.19842496 -0.97127085 1.56501059
H 0.43030912 0.88994971 -1.98335701
H 2.22125022 -0.00418675 0.19197194
H 2.63873180 0.97642180 -1.22158438
H -1.61595969 -1.85907940 1.08021921
H -0.74836487 -1.23581164 2.52251114
H -1.99783181 -0.23901329 1.70269634
H 1.73943682 1.70457566 0.13446089
H -1.73947499 0.17373893 -1.84024246
