10

O 1.2910917 -1.233918 -0.0012919308
C -0.20347583 1.0578029 0.13662165
N 0.3658094 0.5650661 -1.1908258
C -1.2270298 0.15707022 0.51408094
C 0.2482794 -0.54877055 -0.42377278
N -1.0828048 -0.98460996 -0.1544116
H -2.0077143 0.33553797 1.2507386
H 0.3380953 1.8204482 0.6753293
H 0.9341995 -2.0126548 0.45810163
H 1.3435494 0.8440276 -1.2645701
