10

O 1.29998786 -0.92277174 -1.02752129
C -1.34755636 0.60115991 -0.05604283
N 0.21984091 -0.69349132 1.13363155
C 0.02008656 0.69602207 0.57125446
C 0.25835491 -0.48267491 -0.28709268
N -1.14295099 -0.43813544 -0.79600303
H -2.29116942 1.12003281 0.08027016
H 1.19235306 -0.76448906 1.43991746
H 1.16052501 -0.64785558 -1.94419701
H 0.63052857 1.53220315 0.88578335
