12

N -1.5213114 -1.0988396 -1.3436226
C -0.6198926 -0.45255288 -0.55055565
N -0.6916791 -0.70106936 0.76573676
C 0.2209273 -0.09076362 1.5156702
C 1.1924944 0.7542791 0.99536014
C 1.15637 0.9379447 -0.38358238
N 0.26286456 0.3515519 -1.1701503
H -1.6455181 -0.7472394 -2.2786856
H -2.3205638 -1.5005184 -0.8790964
H 0.16539112 -0.28534967 2.5851998
H 1.9283129 1.2430518 1.6222094
H 1.8726044 1.5895058 -0.87848324
