12

N -0.84915763 -0.35539153 -0.63005966
C 0.47475937 1.2089145 1.2979422
N 1.1613007 -1.7710916 -1.3545281
C -1.4631542 0.58316356 0.10481489
C 0.40440866 -0.6168999 -0.47726008
C -0.8807496 1.3955185 1.090609
N 1.624759 -0.8017265 -0.27187017
H 1.1748935 -2.7317555 -1.0475595
H 1.5784056 -1.5741633 -2.251834
H 0.854368 1.8879626 2.0818727
H -1.5536858 2.095617 1.5890563
H -2.5261476 0.6798524 -0.13118355
