12

N -0.7011458 0.18548022 -0.69932866
C -0.62776303 -1.2127862 -0.7065026
N 0.9320693 0.2803453 0.99942106
C -0.11533573 -0.5359019 1.1973974
C -0.18659285 -1.7807286 0.43873993
C 0.37043747 0.8035035 -0.08739008
N 0.76618713 1.9814887 -0.6264019
H 0.11073316 -2.78599 0.70199084
H 0.1773086 2.3297653 -1.3671238
H 1.2230207 2.652083 -0.028332084
H -0.9809547 -0.18934925 1.7822286
H -0.96796423 -1.7279103 -1.6046984
