11

O -1.1584504 1.9693747 1.516659
C 0.3760598 1.137073 -0.19063956
N -1.2052789 -0.11226959 1.2363927
C -0.6553023 1.0429136 0.8634119
C 0.055368975 -1.266642 -0.3161267
C 0.7335586 -0.012716493 -0.7586313
H 1.5012527 -0.07223806 -1.5279558
H 0.7282459 -2.1233234 -0.22854719
H 0.77645576 2.114779 -0.4364654
H -0.34024084 -1.1412486 0.769992
H -0.8116692 -1.535702 -0.92808974
