11

O 1.2537524 -0.65566885 -2.1058085
C 0.6239137 -0.34673122 -1.1157174
N 1.1412151 0.033925887 0.099137835
C 0.12925759 0.33856025 1.0816106
C -1.1393135 0.09294183 0.30629763
C -0.8601641 -0.29257596 -0.93700904
H 2.132502 0.08700158 0.26011714
H 0.19081815 1.3759527 1.4342545
H 0.19502765 -0.31660783 1.960276
H -2.1199064 0.22594918 0.7517336
H -1.5471026 -0.54274756 -1.7348925
