10

O 0.036180113 -2.550517 0.5181639
C -0.23776737 -1.9920563 -0.50986737
O -0.23309879 -0.6683454 -0.6980919
C 0.13423078 0.096403226 0.46267
C 0.102028586 1.5118408 0.111088626
C 0.08767732 2.685789 -0.13945481
H -0.5324052 -2.4872005 -1.4458605
H -0.56563425 -0.12152563 1.2758543
H 1.1344362 -0.20411852 0.7919171
H 0.074352585 3.7297308 -0.36641917
