10

O 1.3455344 0.5396715 0.5281627
C 0.3253036 -0.80534387 0.27788147
O 0.11711054 -0.83300567 -1.0713305
C -0.8514137 -0.07267085 1.183096
C -0.31310818 0.56012625 -1.1269107
C 0.029917099 0.70146424 0.38439938
H -0.4073379 -0.21920286 2.1792352
H 0.79619265 -1.6258004 0.8062704
H 0.33210966 1.1217189 -1.8021482
H -1.3743082 0.6330428 -1.3586557
