10

O -1.1021907 -0.43725467 -0.7142109
C 0.6557437 0.71748286 0.36970845
O 1.3730103 1.6100241 0.7544947
C -0.58946127 0.88320553 -0.51128095
C 0.7410801 -0.73220897 0.6015164
C -0.29241374 -1.2871044 -0.051535357
H -0.58229405 -2.3309917 -0.13116382
H -1.3576097 1.4893156 -0.02125951
H -0.34538263 1.3203808 -1.4828186
H 1.4995183 -1.2328492 1.1865497
