10

O 1.09821609 0.64012764 1.85222979
C -0.21166517 -0.93617689 -0.90750758
O -0.89964092 0.21661684 -1.02948367
C 0.62846998 -1.01661824 0.13661749
C 0.52497734 0.25999985 0.85922330
C -0.50738968 1.06222352 0.05623060
H -0.42658938 -1.66658999 -1.68234708
H -1.39161864 1.30255468 0.65449686
H 1.26619877 -1.84522142 0.41020820
H -0.08095841 1.98308448 -0.34966774
