11

C -0.2562013 0.41711912 1.0806353
N -0.9306082 0.116927095 2.0516074
C 0.111402735 1.657912 0.44868627
C -0.17774455 -1.2200181 -0.91505617
N 0.5030525 -0.34330443 0.025051039
H -0.50068194 2.0627203 -0.35232916
H 0.37005728 -1.2637262 -1.8617193
H -0.28266132 -2.2349937 -0.51365787
H 1.4205728 -0.6599259 0.31830204
H 0.92181295 2.2856638 0.8166037
H -1.179001 -0.8183739 -1.0981234
