12

O -0.6651895 -1.4518094 0.87891996
C -0.058377974 -0.22396941 1.1998273
C 0.4441372 0.45399478 -0.071870096
O 1.3264383 -0.4237428 -0.7207545
C -0.71215945 0.7735226 -0.99674433
O -0.72560763 0.3767332 -2.1369374
H -0.029493073 -1.9112151 0.30849314
H 0.7877657 -0.34893757 1.8896977
H -0.8123038 0.39750898 1.6942269
H 0.9390212 1.4049028 0.18845332
H 1.0303109 -0.45307404 -1.6465588
H -1.5245419 1.4060856 -0.58675313
