12

O -1.32905074 -0.98714344 1.09572987
C -0.63486052 -0.21277428 1.71013255
C 0.16571658 0.93002305 -0.23098800
O 0.17513854 0.70472080 1.20130658
C 0.69453791 -0.23118922 -1.06604426
O -0.28252481 -1.15296529 -1.46419776
H -0.81235195 -1.36296788 -0.67605503
H 1.52629120 -0.70143391 -0.51569946
H -0.58354964 -0.16770319 2.80545657
H 0.81540619 1.80289246 -0.32827647
H 1.11531497 0.19697982 -1.98252979
H -0.85006776 1.18156072 -0.54883473
