11

C -1.3076841 -0.7861367 0.6819269
N -0.12807555 -0.051332008 0.26597747
C 0.3969179 0.09926304 -0.97108835
C 1.4889044 0.90239173 -0.7697756
N 1.5700847 1.1911988 0.55436754
N 0.59358066 0.61363804 1.1721259
H -1.3666494 -0.7045189 1.7670443
H -2.203341 -0.35170987 0.23228264
H -1.2202269 -1.8368759 0.3959223
H -0.031059952 -0.35992932 -1.8497317
H 2.2075496 1.2840109 -1.4790516
