11

N 0.52209485 1.5628722 -0.6044669
C -0.9930308 -0.26295608 0.7067931
O 0.58651274 -0.533403 -1.6546751
C 0.025847794 0.42082202 -1.0207092
C 0.46686453 -0.6485709 0.5003536
O -1.3144306 0.19178937 -0.59192455
H -1.0667443 0.5437016 1.4432652
H 0.67275345 -1.6630852 0.18087198
H -1.6084155 -1.1212236 0.99768764
H 1.2523506 -0.1467604 1.0504504
H 1.4561975 1.6568142 -1.0076462
