11

N 2.260906 -0.64468163 0.7191803
C 1.1079776 -0.3185765 0.34012818
O 0.50742376 -0.89993334 -0.7241471
C -0.8573862 -0.49753815 -0.75498205
C -0.8356384 0.8046907 0.038036015
O 0.2879603 0.6194628 0.89617145
H 2.5522194 -0.065381445 1.5018572
H -1.4739375 -1.2639927 -0.27202174
H -1.1638987 -0.3770729 -1.7949501
H -0.6615979 1.6770843 -0.60065603
H -1.724028 0.9659388 0.65138394
