11

N 0.2783522 -0.78447837 -1.3869798
C 1.1163121 -0.8254211 -0.44018775
O -1.9500941 1.6507621 -0.036798824
C -0.8251059 1.2732145 0.1665907
C -0.51806736 0.03544256 0.9882226
O 0.820125 -0.41456488 0.80063987
H -1.245327 -0.74489814 0.747689
H 2.1505575 -1.1773092 -0.4722356
H 0.069351956 1.8357352 -0.1733568
H 0.6891067 -1.1380533 -2.2449934
H -0.5852111 0.2895706 2.05141
