11

N 2.2618937 -0.64131546 0.7231323
C 1.1076226 -0.3182793 0.34399483
O 0.50905025 -0.90085554 -0.72185034
C -0.85590816 -0.49842578 -0.7558617
C -0.83684313 0.80393237 0.03662352
O 0.28481844 0.62109864 0.8972955
H 2.5523112 -0.06317043 1.5039228
H -1.4719837 -1.2661777 -0.27474576
H -1.1599225 -0.37697187 -1.7965517
H -0.66538656 1.6768707 -0.6044219
H -1.7256517 0.96329445 0.64846224
