11

O -1.1181239 1.2543633 -0.48623922
C -0.6130174 0.731353 0.71848696
C 0.4645081 -0.29884154 0.45411023
C 0.42575762 -1.1357026 -0.74122334
O 1.2826273 0.007610744 -0.67032284
H -0.34424454 1.4268111 -1.0405959
H -0.19594 1.524609 1.3590075
H -1.448012 0.27036768 1.255629
H 1.0120516 -0.65667766 1.3275319
H -0.4115244 -1.0316854 -1.4279474
H 0.9459177 -2.0922074 -0.74843687
