11

O -1.4210472 0.6662206 0.24582167
C -0.003183045 -1.3740027 -0.07089216
O 1.1069596 -1.3203022 0.7232999
C 1.0476447 0.13194278 0.8415882
C -0.5030143 1.0047358 -1.237984
C -0.14144562 0.13917997 -0.10718319
O -0.55144906 -2.3261745 -0.5228934
H 1.9589895 0.5981818 0.46430168
H 0.8273596 0.42862523 1.868301
H -1.2920423 1.6442568 -0.21008763
H -1.0287721 0.40733612 -1.9942721
