11

O -1.60071257 0.85829856 -0.27538323
C -0.72181836 0.02006912 -1.06837505
O 0.66190618 -1.22442589 0.75808557
C -0.75320285 0.83016463 0.80152402
C 0.29233452 0.00502076 0.07042917
C 1.75976082 0.00387009 0.04702874
O -0.90159174 1.32748859 1.86955100
H 0.78025879 -1.91918790 0.08991169
H -1.20605457 -0.93102443 -1.30426934
H -0.38013909 0.53015353 -1.97116362
H 2.06925844 0.49957294 0.98266110
