12

N -1.5225481 -1.0992603 -1.3441148
C -0.6199283 -0.45323926 -0.55236983
N -0.6914169 -0.69943285 0.7666706
C 0.2213481 -0.09036394 1.5148144
C 1.1937577 0.75445974 0.99682367
C 1.1570712 0.93831646 -0.38305008
N 0.26409137 0.35157079 -1.1688745
H -1.6485281 -0.7493827 -2.27985
H -2.3216643 -1.5039301 -0.88219273
H 0.1657445 -0.28452605 2.5852654
H 1.9297636 1.244143 1.6235849
H 1.8723096 1.5916451 -0.87670684
