10

N 0.6942015 -1.9677215 0.5699338
C 0.35142788 -0.03494099 -0.8621144
C -0.19886866 1.190286 -0.7597209
C -1.0755745 1.0416565 0.6442852
C 0.17579855 -0.8323492 0.37641698
O -0.7278472 -0.22042695 1.1961184
O 0.02887834 1.7485424 0.64391166
H 0.7224871 -0.50702375 -1.7641009
H 0.43769222 -2.3397856 1.4826442
H -0.4081953 1.9217627 -1.5273738
