12

N -2.1306474 0.56026894 -0.075720176
C -0.78529966 0.19740607 -0.040854264
N 0.15290949 0.8204795 0.6358416
C 1.3078592 0.16213179 0.30544838
O 2.4938257 0.540797 0.82878876
C 1.0852134 -0.86847436 -0.5571392
N -0.2992675 -0.83559304 -0.76629215
H -2.294699 1.3134795 0.5806874
H -2.7590091 -0.20827195 0.11932225
H 2.3077283 1.2774241 1.4244883
H 1.7346252 -1.609491 -0.9931631
H -0.8132389 -1.3501564 -1.4614079
