11

C -0.8801642 -0.8013552 -1.1900615
C -0.128232 -0.06272123 -0.14131667
C -0.26517463 1.1330283 0.47065827
N 0.760178 1.3039408 1.396662
C 1.4477816 0.22209112 1.2947661
O 0.98581994 -0.66138744 0.39023197
H -1.2563353 -1.756465 -0.8095651
H -1.7326046 -0.20000876 -1.5163476
H -0.24914911 -1.0076015 -2.0587955
H -1.0205107 1.8897473 0.3229902
H 2.3383913 -0.05926853 1.8407776
