11

C 0.21565634 -0.76975062 -1.26413417
C 0.37983460 -0.47725179 -0.02712824
C -1.40862246 1.03545592 -0.67090772
N -1.00262682 -0.30707608 -0.54358893
C 1.03470047 -0.36483674 1.28114794
O -1.07402579 1.91431830 0.08183032
H 0.49442908 -0.97455381 2.01315824
H -2.14074525 1.18227697 -1.48589702
H 0.43062054 -1.21377718 -2.21805248
H 0.99976968 0.67804885 1.60730668
H 2.07100991 -0.70285396 1.22626515
