11

C -0.8025843 1.4031318 -0.9452952
C 0.19904776 -0.87324977 -1.1978621
C 0.5602559 -0.6102475 1.4692727
N -0.91148186 0.012503041 -0.75105906
C 0.19241513 -0.5773543 0.049172625
O -0.3536774 2.1641912 -0.12661348
H 0.44355977 -1.4209182 -2.0887058
H 1.4080502 -1.2773719 1.6347867
H -1.2557118 1.7357862 -1.8970222
H -0.29396307 -0.9588411 2.0594249
H 0.8140895 0.4023704 1.793901
