9

O -1.0576854 1.6877869 0.04340167
C -0.30683514 0.58567697 -0.056589555
N 0.93359023 0.59648484 -0.54477376
N 0.35374212 -1.5059757 -0.052501768
N 1.3480928 -0.6500203 -0.5984297
C -0.65874845 -0.7097757 0.31120333
H 1.4846629 -1.3434404 0.4334246
H -0.53808707 2.4244442 -0.30972838
H -1.5587319 -1.085181 0.7739936
