9

O 1.43021380 -0.81064941 1.24096489
C -0.05175430 -0.57439463 -0.68961100
N -0.94515027 0.42192063 -0.94358548
N -0.95978366 1.33846545 0.01416248
N -0.08550273 0.97136307 0.90929947
C 0.48530010 -0.18747899 0.51382138
H -1.56117758 0.52783284 -1.73397456
H 0.11189412 -1.41407243 -1.34402603
H 1.57596047 -0.27298637 2.03294888
