10

C 0.48026464 -0.02904488 0.81390220
C 0.43595952 0.98472167 -0.27565792
N -0.73195180 0.81729576 0.57961514
C -0.75193329 0.28450030 -0.80840254
N -0.59773952 -1.16906098 -0.81487074
C 0.16211743 -1.35387445 0.18944041
H 1.01526337 0.12898475 1.74233422
H 0.93484332 1.92708303 -0.44794992
H -1.45361350 0.73679208 -1.49990300
H 0.50678986 -2.32739701 0.52149226
