10

C -0.9408892 0.37757483 0.52155876
C 0.03684152 -1.3591807 -0.21544461
N 0.4556917 0.6858374 0.9282519
C 0.9045051 -0.1373111 -0.23864342
N -1.1060334 -1.0494822 0.25157064
C -6.928532e-05 1.0325634 -0.41174933
H -1.7331896 0.9043559 1.041037
H 0.10988601 2.0096073 -0.8588618
H 1.9593142 -0.105835214 -0.48271316
H 0.31394288 -2.3581297 -0.5350059
