10

C 0.8203593 -0.09389162 0.7834417
C 0.446241 1.1366714 0.25972137
N -0.5120462 1.2594445 -0.6575685
C -1.094507 0.1259128 -1.0447202
N -0.822183 -1.1059848 -0.61763597
C 0.14057243 -1.2050385 0.29888391
H 1.5996071 -0.18292044 1.5307326
H 0.9293358 2.055631 0.58536845
H -1.8795815 0.21654773 -1.7929283
H 0.3722021 -2.2063718 0.65470505
