9

N 1.37034651 -1.00831727 -1.96257308
C 0.65985890 -0.83113552 -1.06956865
C -0.29077066 -0.57850512 0.00953012
C -1.23004371 0.58934475 0.03150177
N 0.09655759 0.57050221 0.84839408
H 0.95195601 1.04112995 0.56400603
H -0.00011488 0.47216354 1.85311418
H -0.99938296 1.22437405 -0.83378774
H -0.55840683 -1.47955642 0.55938332
