9

N 1.1088492 -0.9799127 -2.1879013
C 0.8957884 -0.51038635 -1.1542114
C 0.6155678 0.05285558 0.15477109
C -0.709302 0.6912333 0.37932894
N -0.3902356 -0.57916415 1.0069973
H 1.4899201 0.4262316 0.6799377
H -0.76837134 1.5411243 1.0540475
H -1.4040896 0.7096738 -0.4555965
H -0.838127 -1.3516552 0.5226267
