9

N 0.49556822 -1.0379883 0.062355492
C 1.071356 0.5799607 -0.3647549
C -1.3956165 0.49231026 0.23580438
C -0.28700045 0.016563071 -0.5861823
N -2.2623227 0.8959818 0.88664556
H -0.60324043 -0.24129409 -1.5972567
H 0.37922943 -1.0524391 1.072399
H 1.0809629 1.0969118 0.6065025
H 1.5210633 -0.7500062 -0.31551313
