9

O -0.95178276 -0.7045671 -1.2747065
C 0.22386453 -0.60931915 -0.79146516
C 0.1372297 1.4484519 0.5993351
O -0.6012021 -0.8144661 1.1105871
C 0.36885285 -0.03694728 0.5794549
N -0.08515873 2.5814953 0.6172085
H 1.0128791 -1.0900601 -1.3702157
H -1.498476 -0.567045 -0.42757085
H 1.3937933 -0.20754261 0.9573722
