9

O -0.041393317 -0.5341324 1.2731502
C 0.85461795 0.45408198 0.982748
C -0.15631546 0.20103516 -0.9149479
O -1.6142699 -1.5798868 0.012371548
C -0.7483761 -0.76803726 0.097799405
N 0.87480116 0.92881304 -0.18959159
H 0.26418948 -0.33925033 -1.769248
H -0.922973 0.88168836 -1.3011404
H 1.489719 0.7556882 1.8088586
