9

O -1.12373 0.36262745 -1.0479333
C 0.073782176 -0.091172695 -0.5144885
C 0.48746935 0.7423509 0.70183307
O -0.23065288 1.6277119 1.0945364
C -0.0014259814 -1.5049695 -0.062865235
N -0.051385026 -2.593904 0.31780162
H -1.477025 1.0042887 -0.4066215
H 0.8757178 -0.032374978 -1.2647783
H 1.4472497 0.4854424 1.1825161
