9

O -1.1181096 0.3663432 -1.0509715
C 0.074925706 -0.09197058 -0.51293236
C 0.48670673 0.74340427 0.70073456
O -0.23146099 1.6262842 1.0947903
C -0.00419904 -1.5061879 -0.063891396
N -0.051730704 -2.5931835 0.32137498
H -1.480806 0.9975627 -0.40568566
H 0.8774687 -0.02986912 -1.2623726
H 1.4472052 0.48761672 1.1789539
