10

N -0.92736375 -0.83596545 0.43931046
C -0.5498083 0.47169307 0.886459
C 0.4440069 0.8984054 0.112474024
C -0.25189596 -1.3259314 -0.5916879
C 0.72029626 -0.19363494 -0.8870856
H -1.0592813 0.93231237 1.7225336
H -1.6707195 -1.3519654 0.8915071
H 0.95717055 1.848481 0.18485524
H 1.7486658 -0.5753549 -0.8313571
H 0.5889297 0.13196014 -1.9270089
