10

N -1.0493596 0.26217312 0.36149442
C -0.659182 -0.9680536 -0.0985895
C 0.66921586 -0.88565767 -0.43773973
C 1.0935684 0.44519484 -0.17069167
C 0.010146253 1.1301512 0.32227588
H -1.9740301 0.49372807 0.6801921
H -1.3556176 -1.7925891 -0.14506835
H 1.2761816 -1.6876477 -0.83402425
H 2.0851405 0.84765357 -0.32521063
H -0.096063405 2.1550472 0.64736164
