9

O -0.53451692 1.98686640 0.03492484
C 0.40803385 -0.11178236 -0.79578409
N -0.15304313 -1.27945797 1.02137218
N -0.55914141 -0.05942895 1.20694045
N 0.42591288 -1.32049409 -0.17342623
C -0.23545108 0.68051382 0.12269753
H 0.80929557 -2.19174629 -0.50097154
H -0.98693301 2.22773878 0.85639506
H 0.82584330 0.06779096 -1.77214807
