9

O 0.8158218 -1.6761705 -0.7628876
C 0.2704336 -0.5630629 -0.24749206
N -0.3086711 -0.51271623 0.9408158
N -0.6905631 0.75865084 1.0224464
N -0.40740952 1.5267199 -0.006503214
C 0.21477647 0.7075476 -0.84970796
H 0.6924705 -2.3898811 -0.12343014
H -1.1684784 1.1116729 1.8355062
H 0.5816198 1.0372398 -1.8087473
