11

O -2.2954419 -0.6260302 -0.42692056
C -1.1535876 -0.3742422 -0.16066287
C 0.11480951 -1.2122433 0.042757094
N 0.75701237 -0.049670085 0.73054653
C 0.8568227 0.9803775 -0.28345215
C -0.4450218 0.8142561 0.41124254
H -0.060460582 -2.0378866 0.73723876
H 0.65890056 -1.5770774 -0.8335898
H 0.95973337 0.69577926 -1.3285052
H 1.4582077 1.8344421 0.01740413
H -0.8509746 1.5522947 1.0939415
