11

O -1.00289950 -2.36985906 1.72873254
C -0.43855127 0.15968774 -0.61158678
C -1.15984185 -1.34685963 1.19538006
N 0.56436073 1.11752290 -0.15896606
C 1.78344412 0.82653648 -0.34534420
C -1.32668341 -0.21299185 0.55452669
H -1.05583977 0.64137698 -1.38000467
H 0.01736317 -0.73404571 -1.07064001
H 2.12404329 -0.08518741 -0.85165591
H 2.55489300 1.51063817 0.00585827
H -2.06028878 0.49318128 0.93370004
