11

O 0.14329307 -0.46813515 3.061188
C -1.0642402 0.12705885 0.98193836
C 1.3288962 0.48800695 -1.4067631
N 0.13587861 0.70403993 -1.0385064
C -0.42831668 -0.16911864 2.0919228
C -0.56940824 -0.37530842 -0.35606682
H -1.904989 0.81339526 1.0340301
H 1.8889225 1.2844192 -1.8951991
H -1.4369426 -0.6610048 -0.96376526
H 0.059253924 -1.274527 -0.23971756
H 1.8476527 -0.4688262 -1.2690612
