10

O 0.3720049 -0.9477223 -0.6678644
C 0.81519806 0.29237753 1.3584211
C -0.8385774 -0.24472296 -0.8414245
O -0.6811776 1.1093029 -1.0963391
C 1.100895 -0.6159869 0.45852545
O 0.5953984 1.1203157 2.160498
H 2.020277 -1.1759435 0.5894462
H -0.6184354 1.5860896 -0.25896886
H -1.2793705 -0.6882982 -1.7331771
H -1.4862126 -0.43541166 0.030883279
