10

O 0.6168184 0.9575987 1.1332725
C 1.0835528 1.211831 0.0062144888
C -0.6559129 -0.7840526 0.75265074
O -1.6075788 -0.9491954 -0.13967371
C 0.6824028 0.27627015 -1.0255252
O 0.033779185 0.30888915 -2.0352411
H 0.2038629 -1.4440149 0.7744534
H 1.9170051 1.9085937 -0.12349705
H -1.0370352 -0.38201982 1.6830928
H -1.2368945 -1.1038998 -1.025747
