10

C -0.72014034 0.33293596 -0.56449896
O -0.5152164 1.7114624 -0.5041202
C 0.00229751 -0.46111223 0.23222983
O -0.13810997 -1.8094387 0.30160734
N 0.9410472 -0.006233119 1.1426991
H 1.750654 -0.6033837 1.2287642
H 1.1586632 0.9682777 0.99554163
H -0.79854697 -2.0861986 -0.34455654
H -1.5579178 -0.040959068 -1.1484693
H -0.12273011 1.994649 -1.339197
