10

C 0.69480458 0.65979223 0.12851591
O -1.07126754 0.38316112 -1.44407634
C -0.34271798 -0.01966266 -0.37365674
O 1.27480808 0.23552467 1.32380597
N -0.77863845 -1.23853543 0.11790108
H 2.14040441 -0.14093043 1.11478662
H -0.81716589 1.28778832 -1.66647885
H 1.06630409 1.57484553 -0.32638064
H -1.78531694 -1.32450972 0.09798318
H -0.38121437 -1.41747400 1.02759995
