11

N -1.59749239 -0.10471337 0.08257616
C 1.36685665 1.08129489 0.27857119
C -0.83907792 -1.18507901 -0.60027094
O 0.70604379 0.04291581 0.99648157
C -0.20478247 0.02206759 -0.07250743
O 0.39393249 1.07477504 -0.76047858
H -1.06107369 -1.28287362 -1.65862389
H -0.65443187 -2.11465959 -0.06432893
H 2.35988818 0.78356037 -0.07106275
H -1.86148183 -0.33772109 1.03463085
H 1.39161882 2.02043298 0.83501251
