11

N 0.46143 0.34083083 -2.925825
C 0.35909364 0.63110274 -1.8140049
C 0.2080235 0.96681315 -0.3931825
C -0.5966965 -0.08880452 0.34241924
C 0.05934436 -1.1816518 1.054466
O -0.47341305 -0.0604224 1.7498677
H -0.28271717 1.9424689 -0.3089348
H 1.1976221 1.058098 0.066953234
H -1.6112428 -0.23927172 -0.025510876
H -0.46807963 -2.1216116 1.2070006
H 1.1466357 -1.2475516 1.0467513
