11

O -2.0684814 1.3987736 -0.9212877
N -1.5738826 0.35547864 -0.5575444
C 0.14868948 -0.16160735 1.1790047
C 0.7081768 -0.64333296 -0.7314968
O 0.9587927 -1.1769296 0.5740931
C -0.15579195 0.49716973 -0.17406361
H 0.19252498 1.5219331 -0.32958767
H -0.7288739 -0.5807649 1.6843156
H 1.6304059 -0.32188803 -1.2286687
H 0.16569412 -1.3507996 -1.3682616
H 0.7227461 0.46196753 1.8734972
