11

O 0.3316922 -0.8691101 2.2308872
N 1.0014359 -0.2666625 1.3239625
C 0.032273013 0.22649598 0.49078694
C -0.519225 -0.75555664 -0.590258
O -0.090907164 0.1124465 -1.634543
C 0.35990977 1.108783 -0.694307
H 1.4238732 1.3450032 -0.80913615
H -1.6054652 -0.87897044 -0.59358096
H -0.2412358 2.0215502 -0.7796257
H -0.66693705 -0.30970567 1.6574134
H -0.025413629 -1.7342733 -0.6015989
