10

O -1.9036244 1.3568081 1.0871097
C 0.43417287 -0.56024474 -0.66706413
N -0.8592425 0.035590302 -0.49633095
C 1.0883539 -0.049897496 0.59140354
C -0.9436948 0.7554149 0.67009956
N 0.3426581 0.6712103 1.327249
H -1.6459477 -0.06201296 -1.113523
H 2.1187193 -0.27931392 0.85284126
H 0.40652427 -1.6568438 -0.6888463
H 0.96208096 -0.21071076 -1.5629387
