10

O 0.18308695 -2.2344432 -0.4928813
C -0.1357977 1.4094694 -0.42763504
N -0.2908359 -0.004075996 -1.0935122
C 0.17450726 0.98554844 0.8259512
C 0.097717725 -1.0617433 -0.215746
N 0.3499727 -0.39958453 0.94872135
H -0.159017 -0.12027266 -2.0903573
H 0.30528352 1.6133903 1.6962961
H 0.6813481 -0.89192307 1.7639357
H -1.2062657 0.7036346 -0.91477275
