10

O 2.364834 -0.3951564 0.2756181
C 1.1737134 -0.19552733 0.13576517
N 0.3292032 0.57372046 0.92282736
C -0.9734795 0.5518468 0.43495637
C -0.97592133 -0.22480941 -0.66249067
N 0.326072 -0.68106025 -0.8487194
H 0.6586222 1.0618212 1.737027
H -1.7759068 1.0886916 0.91396457
H -1.7813098 -0.49555364 -1.3259716
H 0.6541722 -1.2839729 -1.582977
