10

O 2.644628 0.5546385 -0.015718166
C -1.3980253 0.39260888 -0.109848015
O 0.71439976 -0.63546914 0.11926935
C 2.0700848 -0.47886622 0.13748135
C -2.0284474 -0.86863166 0.11126362
C -0.042307105 0.4636469 -0.09671962
H 2.5288846 -1.4595562 0.31203234
H -3.1247706 -0.6974304 0.07982407
H -1.8905828 1.3511381 -0.29142612
H 0.52613556 1.3779212 -0.24615885
