11

O 0.3118807 1.1656039 -0.4381759
C -0.9979799 -0.75450337 0.23395163
C -0.41931805 0.5734338 0.6293235
N -0.7698506 -1.2572557 -0.90722156
C 1.5744729 0.73489016 -0.5855357
O 2.1518779 -0.023740334 0.1442324
H -1.2262597 1.2739233 0.86023545
H -1.2251261 -2.1667082 -0.9907061
H -1.6183095 -1.2178472 1.01313
H 0.21332516 0.45087382 1.5130311
H 2.0052872 1.2213297 -1.4722649
