11

O -0.57281286 1.649444 1.5169502
C -0.37708226 0.8746791 0.60704774
C 0.7478053 -0.49885398 -0.6505934
N 0.54390687 0.9226602 -0.49504924
C -0.13386337 -0.8423116 0.5634578
O -1.4267701 -0.9078086 0.35798654
H 0.25352553 1.5063703 -1.2682518
H 0.36583218 -0.9135354 -1.5927649
H -1.4654678 0.4692981 0.08755591
H 1.7894928 -0.79753137 -0.49638426
H 0.27543372 -1.4624108 1.3700452
