10

N -0.8352681 0.5368662 -1.3451123
C -0.46037078 0.039668262 1.082464
N 1.1505741 -0.3772486 -0.37100738
O 1.247919 -1.4249749 0.68479043
C -0.21275744 0.043190826 -0.24296974
C 0.9278155 -0.31945014 1.4303107
H 1.7857203 0.23026742 0.58868957
H -1.2862225 0.36417887 1.6971489
H -0.4863119 0.220681 -2.238064
H -1.8310986 0.68682116 -1.2862502
