10

N 0.50476078 1.14008175 -0.01988764
C -0.82642113 -0.33266394 -0.87343942
N 0.64476869 -1.03749044 1.05197726
O -0.91343265 0.86715656 -1.55702064
C 0.07704136 -0.18337503 0.10697166
C -0.09871862 1.80530924 -1.03465445
H -1.44730211 -1.14735959 -1.20478014
H 0.27340030 -1.97536795 0.99164996
H 0.55319852 -0.69453603 2.00089492
H 1.23270488 1.55824536 0.53828810
