17

C -1.3069928 -1.0450188 1.3082592
N -0.994056 -0.36600018 0.07971632
C -1.6888812 0.44462213 -1.7157859
O 0.2104485 0.8047467 -1.2845362
N 1.2410947 0.10573782 0.64415187
C 2.535357 0.60369515 0.2342003
C 0.15996836 0.1729197 -0.18314411
H -0.8801536 -2.0596316 1.3582599
H 3.1554704 0.7572584 1.1191283
H 1.2252194 -0.63235885 1.3246616
H 3.0504665 -0.07908779 -0.45252922
H -1.5005833 1.3197484 -2.3342252
H 2.3944204 1.5602903 -0.27220812
H -0.9818801 -0.4843657 2.1977785
H -2.6117852 0.54347324 -1.1512718
H -2.3947756 -1.1533264 1.3809149
H -1.6133381 -0.49270278 -2.2533698
