17

C -2.4824264 -0.927903 0.60029227
N -1.3228364 -0.4278655 -0.11527066
C -0.26350513 0.06912468 0.6245818
O -0.34637088 0.21796606 1.8366241
N 0.85497874 0.4239685 -0.09423273
C 2.0685918 0.7617699 0.6223823
C 0.93417454 0.34846136 -1.5391371
H -2.2664757 -1.830752 1.1865345
H -2.8339412 -0.1599158 1.2933251
H -3.2767022 -1.1436877 -0.11744853
H -1.0948392 -0.9297842 -0.9607559
H 2.8552477 0.011585496 0.4579997
H 1.8341562 0.8041813 1.6851702
H 2.4516444 1.7370423 0.29816863
H -0.019833978 0.6396151 -1.9901979
H 1.6934241 1.0567586 -1.8862255
H 1.2147135 -0.650565 -1.9018105
