11

C -1.4722888 0.7939289 -0.45014125
N -0.4799944 -0.08687321 0.12570125
C 0.8401187 0.027145088 -0.12440539
O 1.3873358 0.8450292 -0.8391878
C 1.6749046 -1.024438 0.60851914
O 1.1973292 -1.8606135 1.3303146
H -0.9537428 1.5180937 -1.0803696
H -2.1817703 0.22873443 -1.0626427
H -2.0192945 1.3250278 0.33375782
H -0.75022703 -0.83120036 0.7524295
H 2.7576294 -0.9348339 0.40602443
