11

C -1.5129522 -1.1676165 0.053488445
N -0.3304573 1.7626508 -0.6798163
C -0.07472482 0.7014406 -0.056964364
O -1.1811054 0.0562035 0.5048755
C 1.2409093 0.05527885 0.2742234
O -0.9625362 -1.7809027 -0.8161447
H 2.064855 0.702022 -0.032030266
H 1.3149449 -0.9070949 -0.24040468
H -2.3944821 -1.5118524 0.61756396
H 1.3048316 -0.12569234 1.3506864
H 0.53071713 2.215563 -0.9754773
