11

C -1.74681615 -0.63726184 -0.44468453
N 1.00896044 0.74786808 -1.44947655
C 0.35029748 0.44702776 -0.42226239
O -1.03983970 0.50164954 -0.56581731
C 0.80702418 0.13231928 0.97432730
O -1.30615183 -1.73227715 -0.23951150
H 2.00316022 0.77371929 -1.23719185
H -2.81275214 -0.39300290 -0.57844755
H 0.29053867 0.77966513 1.68832681
H 0.56174301 -0.90650635 1.21341941
H 1.88383569 0.28679931 1.06131816
