10

O -1.7819016 -1.1553179 0.07619637
C 0.55898714 -0.3081041 0.66144216
C -0.72874355 -0.35246673 -0.09554207
C 0.7902189 0.836261 -0.36238167
N -0.55730766 0.58668745 -0.9493372
H 1.2040436 -1.1839933 0.5608434
H 0.8810264 1.8377169 0.06713581
H 0.48280647 -0.009874483 1.7103137
H 1.5965832 0.6661429 -1.0809318
H -2.4457128 -0.91705173 -0.58773863
