10

O 2.005121 1.1488553 0.43593284
C 0.9600545 0.6003287 0.20746939
C 0.4328545 -0.84893125 0.23119959
C -0.9145023 -0.24252346 -0.23672877
N -0.26417086 1.0627296 -0.19466394
H 0.9228071 -1.5143079 -0.48176098
H 0.42351264 -1.302581 1.2239096
H -1.2355202 -0.54726017 -1.2377733
H -1.7438494 -0.35107195 0.46809366
H -0.5863068 1.9947617 -0.41567808
