10

O 2.243594 0.17743763 0.9498813
C -0.7830101 0.08100424 -0.8334525
C 0.8996763 0.1676073 0.8690242
C -1.7892283 -0.26128793 0.11182449
N -1.5230325 -1.2306325 -0.6512431
N 0.5860845 0.148628 -0.42016545
H -2.404869 -0.034660835 0.968069
H -0.9951838 0.6388711 -1.7439778
H 1.306684 0.12142759 -1.1406058
H 2.4592845 0.19160539 1.8906455
