10

O 0.023616292 0.32436854 2.0213525
C -0.024171637 0.120481275 0.6899221
C 0.8903495 -0.2853535 -0.2564143
C 0.14349404 -0.2786692 -1.4605887
N -1.1093215 0.09370097 -1.2777661
N -1.1916959 0.3340545 0.049101673
H 0.9154668 0.13478006 2.3354673
H 1.9282341 -0.5456159 -0.10315955
H 0.4852982 -0.53496516 -2.4547887
H -2.06127 0.63721853 0.45687386
