10

O 0.99615939 1.73042436 -0.71950547
C 0.61788678 0.59639477 -0.88896539
C -0.49762947 0.02421617 -0.02698283
O 0.34012798 -2.22300253 -0.03896918
C 0.02028937 -1.26166204 0.61444453
O -0.91535080 0.94364869 0.92835156
H 1.04707930 -0.08084996 -1.64897888
H -0.38995496 1.74767635 0.77641671
H -1.31259013 -0.25707705 -0.71541740
H 0.09398243 -1.21976870 1.71960614
