10

O 0.4226999 1.7029878 -1.1939629
C 0.4179124 -1.1404552 0.7031757
C -0.4774243 -0.0386144 0.13973022
O 0.6642693 -2.14711 0.08724052
C 0.19849141 0.5200286 -1.1035858
O -0.7125135 0.9621204 1.0755582
H -1.4122334 -0.5162477 -0.19972123
H -0.39971688 1.788889 0.6703454
H 0.46727666 -0.21159263 -1.8865111
H 0.8312385 -0.9200059 1.7077311
