9

N 1.9013777 -1.1047366 0.40829498
C 0.6990394 -0.7040523 0.46263674
N 0.26541564 0.30384463 -0.40916792
C -0.9476105 0.65754175 -0.32049102
O -1.4641978 1.6073061 -1.0970309
H -1.7004235 0.25783804 0.3657595
H 2.0507035 -1.832064 1.1034994
H -0.74992263 1.9159791 -1.6784508
H -0.0543819 -1.1016568 1.1649499
