12

C 0.6205389 -0.83348763 1.5909412
N 0.22054334 1.4198337 -0.05555391
C -0.15934347 0.13505986 -0.431197
N 0.09871073 -0.9275446 0.30337867
C -0.9116764 -0.057905614 -1.6566771
O -1.1763126 0.8512174 -2.4247875
H 0.028219042 2.0534525 -0.82558215
H -0.6345532 -1.3377478 1.0872461
H -1.2223767 -1.1055487 -1.8404799
H 0.9660882 -1.7748932 2.0033443
H 1.1879008 1.4753582 0.24244995
H 0.98226136 0.10220572 2.0069172
