12

C -0.040340714 0.4825301 0.20611155
N -0.8528891 -0.06848878 -0.6089622
C -0.4462762 1.8213269 0.7358281
N 1.1789978 0.050618242 0.65054506
C -0.47387415 -1.374383 -1.1179891
O 0.20741886 2.4258804 1.5526416
H -1.2435337 -1.7323047 -1.8046415
H 1.3911316 -0.9344227 0.6325899
H -0.36917257 -2.1187096 -0.31260732
H -1.3975981 2.1918645 0.3142466
H 0.48046896 -1.3333193 -1.6624134
H 1.5656673 0.58940786 1.4146504
