12

C -0.7646443 1.1740701 0.0036612826
N -0.18500996 -0.15389399 -0.14464714
C 1.0643435 -0.41269228 0.4015755
N 1.7025206 0.48667172 1.0296644
C -0.856501 -1.1477823 -0.81880283
O -1.941823 -1.0218253 -1.3292512
H -1.7407169 1.1588774 -0.48324323
H -0.113182515 1.9185097 -0.46097624
H -0.86677504 1.4179142 1.0642382
H 1.4016503 -1.4413096 0.22472517
H 2.5876248 0.117911585 1.3577795
H -0.2874866 -2.096451 -0.8447236
