12

C -0.55164358 0.73090834 1.79424065
N -0.90768069 0.22511360 -0.47789657
C -0.06795444 0.19878882 0.48250373
N 1.23639422 -0.21284721 0.49176446
C -0.45166347 -0.30190646 -1.75163853
O 0.12568965 0.71575639 2.79472882
H -1.25477675 -0.21757932 -2.48639922
H 0.41922007 0.25312433 -2.12894144
H -1.58206484 1.12690146 1.75597988
H 1.55200311 -0.87096558 -0.20314563
H 1.65116287 -0.28291149 1.41193971
H -0.16868626 -1.36438264 -1.68313606
