11

O -1.565537 0.06398441 -0.22597449
C -0.4787472 0.27824718 -1.6680616
O 0.36010292 -2.4093332 0.37545645
C 0.7581276 0.77575976 0.7011481
C -0.1207815 -0.0023176472 -0.2697822
C 0.4644766 -1.2269051 0.42739964
O 1.2697097 -0.47323558 1.2356194
H -0.6434806 -0.71120775 -2.1292877
H -1.8272161 0.9953043 -0.15630764
H 1.5483633 1.366716 0.23399778
H 0.23498207 1.3429874 1.4757922
