10

O -2.3857005 0.9555195 0.4068151
C -1.768733 -0.058501713 0.62596536
C -0.35815272 -0.22360438 0.21223089
N 0.2761735 -1.3421019 0.46435106
O 1.53715 -1.175695 -0.030679833
C 1.6388565 0.049880166 -0.57671165
C 0.47052112 0.7190534 -0.46196565
H -2.2130954 -0.9255515 1.1485535
H 2.6038487 0.28912067 -1.0032995
H 0.19913179 1.7118808 -0.7852592
