9

N -0.26151428 -0.1661256 -1.1082159
C -0.76878184 -0.93087626 0.41169325
C 0.89164406 0.9736534 0.7076528
C -0.38679937 0.49138576 0.19389719
N 1.9028848 1.3417873 1.1317872
H -1.1587048 1.2607887 0.21632156
H -1.0345979 -0.9815385 -0.96348476
H 0.6826916 -0.49849376 -1.2938123
H 0.13317756 -1.490581 0.70416087
