9

N 1.1111355 -0.980079 -2.1869352
C 0.89753 -0.5110324 -1.1526514
C 0.61494756 0.052458026 0.15566513
C -0.71125984 0.69122523 0.3789483
N -0.39168692 -0.5778629 1.007979
H 1.4892243 0.42755654 0.68040043
H -0.7697941 1.5423412 1.0513575
H -1.4033352 0.7082978 -0.45857182
H -0.83676165 -1.3529043 0.52380806
