11

O 0.4597403 -1.0919274 -2.3358116
C 0.8093195 -0.14780436 -1.6593995
C 0.26864916 0.10754383 -0.33554223
C 0.47343692 1.0737816 0.624798
N -0.3097733 0.83762586 1.7126662
C -0.98628736 -0.25815922 1.4233422
N -0.6767769 -0.7384655 0.20323966
H 1.5656749 0.5791186 -2.0157864
H 1.1411406 1.9229201 0.5844752
H -1.7099084 -0.7332947 2.073654
H -1.0352154 -1.5513391 -0.27563536
