11

C 0.71349379 1.27908779 -0.05878981
N -0.66250727 -0.39983993 0.11040223
C -1.67466569 -1.21499998 0.27016187
N 0.59939866 -1.02365689 -0.20095174
C 1.39258411 -0.03334768 -0.29713246
N -0.65737501 0.89899904 0.19700594
H 1.16930683 1.80631825 0.79219018
H 0.80923866 1.93378282 -0.93664384
H -2.63617368 -0.77946845 0.49839530
H -1.49371569 -2.27292567 0.15811302
H 2.44041498 -0.19394957 -0.53275064
