11

C -0.93519413 1.3027632 0.29432958
N -0.08863936 0.1602629 0.028789217
C -0.3813593 -1.150471 0.010377237
N 0.69448996 -1.8580548 -0.27427727
C 1.6385571 -0.898028 -0.42324966
N 1.21932 0.3382312 -0.2512637
H -0.5743201 1.8300415 1.1800582
H -0.91372037 1.9788157 -0.56369656
H -1.9571047 0.95719934 0.4632478
H -1.3707365 -1.5415063 0.20623703
H 2.6687071 -1.119254 -0.67055184
