11

C 0.82366973 -0.5600309 -1.0181473
N -0.23236167 -1.0617511 -0.5159713
C -1.718646 -0.34826317 1.13079
N -0.6339681 -0.07132363 0.4516346
C 1.175533 0.76715225 -0.42213148
N 0.121507 0.98483974 0.54265946
H 2.1715431 0.73493963 0.043519303
H -2.050568 0.37597033 1.8598918
H 1.363616 -1.0909021 -1.7965381
H -2.2229753 -1.2786376 0.91969764
H 1.2026505 1.5480067 -1.1954046
