10

O -0.4756296 -1.5591562 -0.612536
C 0.7929663 0.55013037 -0.2170475
C 1.7466266 0.67665714 -1.0779059
N -0.106394164 0.82896525 0.66373384
O 2.5561275 0.49233434 -1.9451666
C -1.2618927 -1.2198111 0.25695527
C -1.1098465 0.053972684 0.9577377
H -2.1104014 -1.8616774 0.54802954
H 1.7751917 1.6684915 -0.30202845
H -1.8067476 0.37009367 1.7282282
