11

N 0.04318080 -0.62711009 1.47148213
C 0.59906508 0.53128202 1.14761758
O 0.86285805 0.90817832 -0.04971494
C -0.86127130 -0.17708300 -1.39657276
C 0.42391934 0.38747522 -1.23216569
O -1.26534502 -0.62518333 -2.46803902
H -1.52763894 -0.16112446 -0.50348406
H -0.10345875 -1.32995071 0.75790603
H -0.16282323 -0.83788814 2.43016175
H 0.97540362 1.20069098 1.91205469
H 1.01611027 0.73071299 -2.06924605
