9

O 0.10711564 2.19424070 0.50787689
C 0.18678985 1.03763530 0.18340453
N 0.89501941 -0.81825256 -0.57202692
N 1.29561825 0.42420704 -0.42524308
N -0.24109344 -1.24909506 -0.21287730
C -0.86840894 -0.06050143 0.33993976
H 1.54801474 -1.46807402 -1.00148202
H -1.78797336 0.16971630 -0.20672681
H -1.13508220 -0.22987613 1.38713486
