9

O -2.1659975 0.8363274 -0.7224373
C 0.6930755 0.5614416 1.1940542
N -0.32159564 -0.58483064 -0.51905435
C 0.8030032 -0.52078164 0.28740585
C -1.124452 0.5121963 -0.23630224
O -0.46026564 1.2009697 0.7602108
H 1.5654551 0.52450365 0.17492636
H -0.50832295 -1.1982921 -1.2933288
H 1.5191 -1.3315341 0.35452542
