11

N 0.20371503 0.47988109 -1.15351822
C -0.60233444 0.20738759 -0.14159977
C 1.33345874 -0.69866359 0.39684609
C 0.05538949 -0.53430224 0.87611656
N 1.37523991 -0.09077830 -0.80664452
N -1.94597147 0.58079847 -0.17068004
H 2.15360703 -0.02445049 -1.44121209
H -2.12209965 1.26058441 -0.89841018
H 2.19495282 -1.19961379 0.81414160
H -0.35982462 -0.89707311 1.80482650
H -2.28613297 0.91622975 0.72013437
