11

N 0.43268085 0.38553652 -1.1254061
C 1.0254002 -1.0623837 0.49358392
C -0.49870342 0.37702972 -0.18711063
C -0.17978035 -0.5178138 0.86929566
N -1.661587 1.1357516 -0.3200945
N 1.3466318 -0.50667745 -0.69286484
H 1.6597265 -1.7944766 0.972049
H -1.9580479 1.5663477 0.5450484
H -0.75983906 -0.7304098 1.755209
H 2.1587725 -0.6828879 -1.2605867
H -1.5652541 1.829984 -1.049123
