13

C 0.12817733 -0.86749953 -0.2177566
C 0.9168165 0.28229982 0.266882
O -0.80068094 1.9122261 0.037812546
C -0.26300785 0.9503961 0.9729416
O -0.50876427 -1.650164 0.63719517
N 0.0028646414 -1.1862097 -1.4851402
H -0.6656983 -1.8836404 -1.7725552
H 0.4901741 -0.651511 -2.189083
H 1.6601702 -0.060854614 0.99579805
H 1.4165775 0.8238082 -0.5553099
H -1.7571098 1.8194771 0.09278937
H 0.08670152 1.4848233 1.871573
H -0.70622087 -0.97315145 1.3448533
