13

C 0.19851771 -1.5211159 -0.59900415
C -0.20584896 -0.056838233 -0.5841631
O -1.5725609 0.13324092 -0.23101133
C 0.73703605 0.76758057 0.30304596
O 1.9443547 0.62006736 0.26493353
N 0.098650604 1.6559496 1.1072222
H 1.2484583 -1.6138747 -0.88597053
H -0.42823136 -2.0764005 -1.302663
H 0.08421363 -1.9654967 0.39873654
H -0.11288677 0.3620666 -1.591565
H -1.7553234 -0.43583173 0.52737606
H -0.8877757 1.8067495 0.97235847
H 0.6513962 2.3239028 1.6207043
