10

N 1.0372199 1.9164336 0.36121878
C -1.5950156 -0.8567731 0.022311118
C -0.37705472 -1.2787188 0.4679992
C 0.56177104 0.9276614 -0.29559228
C 0.7108205 -0.4597019 0.22846936
O -2.6421883 -0.58120537 -0.35043746
O 0.01616468 0.7372586 -1.4338261
H 0.90570635 2.7767115 -0.16817923
H 1.707922 -0.89710724 0.29640925
H -0.32534534 -2.284559 0.8716275
