10

N -1.53863183 -1.55861941 -0.02943185
C 0.50856189 -0.13288487 0.71364464
C 0.68975324 1.19520464 0.10896288
C -0.16357422 1.66966374 -0.77762544
C -0.38325724 -1.12360398 0.17369477
O 0.89914702 -1.34470948 -0.14031089
O -0.89351286 2.12680306 -1.55105206
H -1.52193844 -2.39972074 -0.60688495
H 0.87043395 -0.25397982 1.73206445
H 1.53301857 1.82184713 0.37693844
