11

N 2.1250637 -0.9665041 0.8067016
C -0.8345202 0.55706054 -0.028609946
O 0.28093883 -0.28247294 -0.05773967
N -1.2862164 1.1151977 -1.2519788
C 1.1134676 -0.12169323 0.99191654
N -2.00196 -0.003785651 -0.6038184
H 2.8528059 -1.0079387 1.4998575
H -2.837707 0.4103371 -0.19810747
H -0.769669 0.6906648 -2.0170147
H 2.208859 -1.5791142 0.0012275759
H -0.8510621 1.1882486 0.85756546
