11

N -1.4286082 -1.2651342 0.7694357
C 1.4801649 1.7138263 -0.80305445
C -0.23349266 -0.015286205 -1.0770243
N 0.5141241 1.0350431 -1.1870182
C -0.3253795 -0.58634526 0.24678653
N 0.7887158 -0.35604712 0.9330262
N 1.8025455 0.11427068 1.1788123
H 1.2868403 2.7817674 -0.6630935
H -1.2310526 -2.2074325 1.0781375
H -1.9529842 -0.7584285 1.4728329
H -0.70087343 -0.45623344 -1.9488404
