11

N -1.3983544 0.9836232 0.25673962
C 0.6125861 -0.2971187 -0.12275944
C -2.328055 1.27979 1.0072657
N 0.27706847 -1.7954 1.7800398
C -0.3330976 0.7730834 -0.40579847
N 0.41772676 -1.0899969 0.89169824
N 1.7464123 -0.454984 -0.9523982
H -3.287554 0.8210705 0.7286903
H -0.092964455 1.4143604 -1.245287
H 2.6249835 -0.30723107 -0.4728278
H 1.7612481 -1.3271966 -1.4653627
