12

C -0.63513068 0.19558247 0.76552930
C 1.28724210 -0.97823746 0.05251327
N 0.64955921 -1.49948737 -0.91044836
C -0.83584243 1.25887962 -0.30130414
O 0.74893488 -0.13137459 0.93841291
H -1.18912602 -0.71672907 0.52319484
H -0.94293765 0.55940727 1.74801870
H 2.33854925 -1.14113948 0.31206147
H -0.53968500 0.87591490 -1.28141898
H 1.26189659 -2.11619160 -1.43684727
H -1.89404088 1.53981320 -0.34052567
H -0.24941932 2.15356236 -0.06918605
