11

N 0.5620748 -1.4127017 -1.3624966
C 0.17575738 -0.44007757 -0.4501994
C -1.0223806 0.10412073 -0.107829735
C -0.71190774 1.1315819 0.8538277
C 0.6279473 1.1204172 1.0132091
O 1.1881274 0.15389256 0.2132347
H 1.4330314 -1.8590618 -1.1079727
H -0.16263498 -2.0963778 -1.5334191
H -1.9956926 -0.17157248 -0.48389918
H -1.4150591 1.784174 1.35103
H 1.3207368 1.685605 1.6145154
