11

N -1.1300917 -1.4798687 0.75174224
C -0.37898418 -0.4281361 0.29796025
C -0.024087677 1.819687 0.17857705
C 0.9320245 1.0932318 -0.6053236
C 0.7207976 -0.33867672 -0.49069154
O -0.8550724 0.79977894 0.63964915
H -1.7194823 -1.2540631 1.5395792
H 1.810691 1.5712752 -1.0231777
H -0.6388016 -2.3545778 0.8419053
H -0.00029443877 1.7131411 -1.1890478
H 1.2833014 -1.1417917 -0.94117224
