11

N 1.0965735 -1.2988666 -1.1276821
C -0.7352265 0.25648522 -0.38768616
C 0.3112823 0.4917795 1.7670597
C 0.39640749 -0.4391611 -0.31970465
C -0.89891243 0.9048022 0.955581
O 1.004129 -0.28584537 0.9519387
H -1.7976952 0.58794117 1.5029196
H 0.8765727 -1.2335949 -2.1085634
H -1.4033127 0.33391336 -1.2320409
H 2.0894148 -1.3205208 -0.94027126
H -0.9392334 2.0030675 0.9384497
