10

O 0.98884684 0.5063989 -1.7990988
C 0.38301003 0.18249951 -0.6560354
C 1.149342 -0.2796652 0.43429255
N 0.56803423 -0.60419935 1.5673766
N -0.75877714 -0.49427554 1.6808333
C -1.4281611 -0.05447344 0.6285818
N -0.92012006 0.29827496 -0.5610869
H 0.29643026 0.79882544 -2.4151268
H 2.2261345 -0.38178363 0.37622434
H -2.5047398 0.028398268 0.74403936
