10

O 0.30204707 -1.2457205 1.3269855
C -0.9226786 -0.77212185 -0.7766537
C 0.61800086 0.8819075 0.448478
N 0.20773816 1.883861 -0.25923416
N 0.24353358 -1.1046357 -1.1435204
C 0.079680525 -0.47001526 0.20123851
N -0.16128895 2.7518897 -0.8890798
H 0.1739758 -2.1729553 1.0832733
H 1.3877757 1.0710757 1.1819901
H -1.9287841 -0.8232855 -1.1734774
