10

O 1.7782964 -0.48131996 -0.10077013
C -0.19031377 -0.06602423 -1.3138804
C -0.37987056 0.46708024 1.1505893
N -0.17145388 -0.812175 1.1600393
N -1.3659235 0.4410173 -1.1475446
C 0.4349204 -0.28875628 -0.0014483958
N -1.8677382 0.9034717 -0.16906379
H 0.29658633 -0.20167826 -2.264032
H -0.57318276 1.0722731 2.0311208
H 2.03868 -1.0338886 0.65498984
