9

O -0.76323921 1.69308133 0.71555816
C 0.17918021 -1.11291820 -0.94095445
N 0.97979995 -1.24057240 0.09152218
N -0.63027016 -0.01331270 -0.93584375
N 0.66439128 -0.13763661 0.82258150
C -0.28689241 0.56258561 0.18880611
H 0.16901299 -1.83981347 -1.74125246
H -1.42965684 2.03031056 0.10008172
H 1.11767414 0.05827603 1.69950112
