11

N -0.41197854 -0.55420434 -1.4663774
C 0.19542514 -1.2952567 -0.6404479
O 0.76976365 -0.8169259 0.47408655
C 0.6981498 0.5955123 0.63087577
C -0.73070633 1.0810543 0.80258256
O -1.0291088 2.2435615 0.71285546
H -0.7869947 -1.0988191 -2.2361126
H 0.3423632 -2.376739 -0.69271183
H 1.158315 1.1192517 -0.21188767
H 1.256702 0.80926347 1.5471916
H -1.46193 0.29330203 1.0799453
