11

N -0.3588942 0.49393454 1.9636623
C -0.15605225 0.18290778 0.61365956
C 0.5254125 -0.86882734 0.054919206
N 0.3445992 -0.7143961 -1.3137963
C -0.42069963 0.3860921 -1.4950218
N -0.7362889 0.95802236 -0.356418
H -0.7495633 1.4234195 2.0464132
H 0.47644693 0.41501772 2.5268009
H 1.0825696 -1.6938376 0.46949208
H 0.7105086 -1.3119861 -2.0334883
H -0.7180386 0.72965306 -2.4762228
