10

O 1.99609586 1.87756712 -0.49626055
C 1.18628891 1.30583724 0.11028096
C 0.29002327 0.66080756 0.83343916
C -0.70556525 -0.27665544 0.19451225
N -0.16275618 -0.82690137 -1.04513633
H 0.60373921 -1.45617181 -0.83849221
H -0.97908524 -1.04243626 0.93914237
H -0.87468205 -1.36310334 -1.53459764
H -1.63176530 0.25404144 -0.06155368
H 0.27770696 0.86701458 1.89866566
