10

O -0.5972927 -0.42395097 -2.19432
C -0.13826904 -0.12572747 -1.1401778
C -0.14217702 0.32527483 0.8955242
C 0.60521 0.8136865 -0.34733403
N -0.14802308 -0.9895889 0.18996745
H 0.89485896 1.8240081 -0.6115865
H -1.1609906 0.70707256 1.023845
H 1.0502259 -0.6515454 -0.05761167
H -0.7556344 -1.7777292 0.39384472
H 0.39209196 0.29850003 1.8478489
