10

N 0.42916125 -0.18694775 0.15830185
C 1.0598779 0.091426924 1.3170757
O -1.6202338 0.722877 0.6869124
C -0.89540076 0.21707663 -0.13085483
O 2.268625 -0.40263373 1.4162154
N -1.2631656 -0.083035275 -1.4218981
H -2.1492329 0.31334418 -1.6965466
H 1.7825198 0.24452716 2.3034315
H 0.9496636 -0.7775064 -0.48877037
H -0.5618143 -0.13912874 -2.1438675
