10

N 0.71513022 -1.58977574 -0.80808604
C -0.38531736 -0.84798920 -0.42589490
O -1.52367765 -1.21169874 -0.56061319
C -0.89270713 1.25465309 0.67982784
O -0.16506423 2.34118769 0.99012958
N -0.00879981 0.41154762 0.09296019
H 1.57945606 -1.47781801 -0.30116601
H 0.48775218 -2.54408984 -1.04814369
H -0.76590426 2.95985959 1.41947842
H 0.95913196 0.70412342 -0.03849211
