14

C -2.3936365 -0.07617114 0.9724554
N -1.3503581 0.13992243 -0.011858743
C -0.032532092 0.03845666 0.34574607
O 0.3561328 -0.07474825 1.4930581
N 0.8438015 0.107273236 -0.7338732
C 2.2157845 0.0048507396 -0.5927388
N 2.9621065 0.10638325 -1.6171085
H -2.0384662 0.2925415 1.9348761
H -2.6508732 -1.1376853 1.0816178
H -3.2884796 0.4797287 0.6825962
H -1.5954821 -0.023124276 -0.9760005
H 0.5162473 0.29797137 -1.6714997
H 2.5208359 -0.16359015 0.4401841
H 3.9349194 0.008191235 -1.3474544
