9

C 0.88440438 1.58438153 1.51156605
C 0.53800368 0.57559867 0.77209332
C -0.30002251 0.20274037 -0.19416441
C -0.33804940 -1.15859073 -0.81229508
O 1.33241960 2.36719727 2.25681100
H -1.02255371 0.92452703 -0.58343005
H -0.15439243 -1.08018578 -1.89068534
H 0.40042905 -1.82577738 -0.36463713
H -1.34023866 -1.58989094 -0.69525824
