9

C 0.7745126 0.11978817 -1.6545146
C 0.15158315 0.02440881 -0.33375373
C -0.3506731 -0.04337328 0.75815195
C -0.97273666 -0.15086868 2.0665703
O -0.6574739 0.51754075 3.0246053
H 0.81298935 1.1611673 -1.9833877
H 0.21871495 -0.4598542 -2.3959064
H 1.7996855 -0.26123613 -1.6150705
H -1.7766019 -0.9075727 2.1333055
