11

N 0.40245880 0.99489358 1.38055327
C -1.12979514 0.50083226 -0.44399433
C 0.10914833 1.25169569 0.05241107
O -0.70973009 -0.86648017 -0.28694329
C 0.60555010 -1.14093939 0.22881969
C 1.13917348 0.27186784 0.45905364
N 1.22370108 1.01432044 -0.71099919
H -2.00409079 0.68400994 0.18446137
H -1.34235584 0.68840182 -1.49815211
H 0.52119747 -1.71274418 1.15545643
H 1.18474210 -1.68585762 -0.52066647
