11

N -2.013292 1.0058279 -0.41711947
C 0.9268849 -0.4703442 -0.5204148
O -0.6332641 -0.18602423 1.0512258
C 0.6610189 -0.7331999 0.9283428
C -0.8417596 0.49186152 -0.18040256
O -0.18483067 -0.5029314 -1.1872121
H 1.4011291 -0.2777725 1.5929523
H 0.15297636 1.2067716 -0.21934749
H 1.8952389 -0.4238369 -1.0187969
H 0.58183324 -1.8121172 1.1142678
H -1.9459344 1.7017653 -1.1434956
