11

N -2.5125728 1.1260659 1.1212397
C -1.3750343 0.7887889 0.7076491
O -1.3195292 -0.24420096 -0.18802805
C 2.1642225 -0.6897304 -0.5860112
C -0.17091204 -0.67510927 -0.70554435
O 0.9870299 -0.26105198 -0.22093852
H 3.0003874 -0.21507771 -0.104394525
H 2.2453997 -1.4627346 -1.3402978
H -0.39614403 1.2177254 0.96910346
H -2.4412787 1.8874234 1.781609
H -0.18156888 -1.4720987 -1.4343867
