11

N -1.19049745 0.86511306 -1.62187659
C 0.24019518 0.31464741 -1.88428390
C -0.37179440 0.79272469 -0.68516567
C 0.19513359 0.21989354 1.48415667
C -0.12178422 -1.06252731 1.46547317
O -0.27682299 1.16957580 0.59469306
H 0.89946358 0.95185579 -2.47808773
H 0.81406775 0.69851786 2.23776828
H -0.78569383 -1.48864950 0.71925193
H 0.32911734 -0.75415013 -2.07532183
H 0.26861575 -1.70700147 2.24339251
