11

N -2.1109207 -0.47581175 1.293491
C 0.10650795 0.22850733 -1.3215657
C 0.41165012 -0.4705196 0.95809144
C 0.8752262 0.4174354 -0.11522345
C -1.0984515 -0.15914476 0.6995901
O -1.0823516 0.6895267 -0.5232682
H 0.2688656 0.9218875 -2.143457
H 1.3587092 1.373259 0.06857326
H 0.5950551 -1.5346067 0.77351844
H 0.72484225 -0.18875743 1.9667113
H -0.04913237 -0.8017754 -1.6564609
