11

N -0.47253332 -2.4984071 -0.27893427
C 0.48146164 1.7725675 -0.13128333
C -0.4733049 -0.42951912 0.8166316
C -0.093617894 0.77421886 0.60223156
C -0.074535206 -1.2939457 -0.4976623
O 0.4961636 -0.6627664 -1.4025993
H -0.06995498 1.9213837 1.1542649
H -0.23136337 -3.0560038 -1.1008998
H -0.12758544 2.3888547 -0.7884379
H 1.5402622 1.9938301 -0.016787603
H -0.9749923 -0.9102126 1.6434764
