11

N -2.5922937 -0.891354 -0.39900535
C -1.407508 -0.54583704 -0.22599036
C 1.6256377 0.8430122 0.28679883
C -0.07272204 -1.1463066 -0.15007685
C 0.3723487 0.10096809 0.052927617
O -0.8622321 0.76181275 -0.0038757417
H 0.3400386 -2.138629 -0.22517224
H 1.770025 1.5942485 -0.4965575
H 1.5799136 1.3604565 1.2505867
H 2.4716105 0.15282743 0.2868469
H -3.2248182 -0.09119868 -0.376482
