11

O -1.98580159 -1.27790193 -0.68816969
C 0.83776495 0.27355440 0.78183271
N -0.02136652 -0.89179632 0.49433105
C -1.04715067 -0.63119824 -0.31860142
C 0.73295833 1.23086541 -0.39212114
O -0.86705308 0.72804612 -0.72093657
H 0.50857016 0.73084921 1.72458182
H -0.09337640 -1.70082586 1.09257910
H -1.15107085 0.88996731 -1.63017502
H 1.21615473 0.70961922 -1.24134830
H 1.87037107 -0.06117948 0.89802719
