11

O -0.56034595 1.3378804 -0.41273
C -0.06454285 -1.086269 -0.031147946
N 0.7164503 -0.13163984 0.7383014
C -0.5209145 -0.31530902 -1.2504668
C 0.37726802 1.1732785 0.6249545
O 0.7695894 2.0975475 1.2743771
H 0.5792202 -1.9083081 -0.3645431
H -0.092150755 1.1706991 -1.3193853
H 1.2732675 -0.40298256 1.5334455
H -1.6040083 -0.42530027 -1.3760579
H -0.873833 -1.5095965 0.58325255
