11

O -0.69002306 0.061090756 -1.1496599
C 0.3007386 0.7999865 0.81087756
N 0.083639264 -0.6595572 0.77337515
C -0.54519343 -1.0937783 -0.3207113
C 0.36372817 1.2988433 -0.62187177
O -0.97236186 -2.163412 -0.6512908
H -0.61681837 -0.14260225 -2.0913336
H -0.5164652 1.2639842 1.3793384
H 1.2433742 1.0101435 1.3198918
H 0.054041214 -1.2467191 1.5931189
H 1.2953402 0.8720208 -1.0417345
