12

C -0.19119109 -0.45983753 -0.5726004
N -1.1297829 0.64152664 -0.3747077
C 1.2369812 -0.22755766 -0.15251338
N 1.4106061 0.91643953 0.55963945
C -1.2651516 -0.55367583 0.4466641
O 2.1122787 -1.0316058 -0.40743846
H -1.8230449 0.66012573 -1.1165066
H 2.3538392 1.1802053 0.8054869
H 0.68128484 1.6137923 0.52600324
H -0.28248835 -1.0865232 -1.4557444
H -2.0912209 -1.2347678 0.24779
H -1.012111 -0.41812137 1.4939272
