11

C -0.8876564 0.76354605 -0.5686903
C 1.3334898 -0.55564606 0.060360912
O -2.1422408 0.7273632 -0.30632934
C -0.11230379 -0.22387248 0.17904599
O -0.86209756 -0.82246757 1.0368346
H -0.45848873 1.1515071 -1.5071925
H -1.7834227 -0.39848045 0.75417906
H 1.4139038 -1.5601722 -0.36973768
H 1.812022 -0.5699053 1.0427263
H 1.8429829 0.151935 -0.5974659
H -0.15618902 1.3361924 0.2762687
