10

C 0.95287450 1.57487465 -1.00651561
N -0.53535933 -0.17053797 -0.98958839
N 0.02770374 0.80343175 -1.68205652
C -0.24240647 -0.87198011 1.28509420
N 0.92864518 0.98462020 0.21563641
N 0.04588614 -0.01373681 0.15261429
H -1.00199463 -1.59113084 0.98428917
H 0.67856330 -1.37631233 1.57833099
H -0.25791548 0.91086219 -2.64509117
H -0.59599696 -0.25009091 2.10728641
