11

C 0.58149252 0.05662770 -0.85846875
C 1.45888392 -0.27966177 0.28134882
C -0.40644595 0.06343476 0.05233216
C -1.86398881 0.27120805 0.16474711
N 2.62415434 -0.53720344 0.64395421
O 0.35705710 -0.24539371 1.17704792
H -2.34340689 -0.63671758 0.54520746
H 0.68766625 0.21818071 -1.92052514
H 3.26375518 -0.51442260 -0.14600888
H -2.28669290 0.52128995 -0.80984025
H -2.07247526 1.08265796 0.87020527
