11

C 1.00783 -0.8093658 -1.1443557
C 0.21601734 -0.16518342 -0.06030017
C -0.8846153 0.63027495 -0.05092428
C -1.0899134 0.8826975 1.3325312
N -0.19570063 0.29371995 2.0764134
O 0.63252044 -0.371627 1.2004375
H 1.0066994 -1.8987281 -1.0359701
H 0.58134663 -0.5537773 -2.1155958
H 2.0475488 -0.4692165 -1.1169592
H -1.4599019 0.98389065 -0.89236283
H -1.8618319 1.4773151 1.8070859
