11

N 1.07014704 -1.63382294 -0.36312835
C -1.21951055 -0.66427785 -0.50400259
C 0.16537696 -0.57199918 -0.14840492
N 0.68052805 0.25563853 0.91649306
C -0.49130624 2.32548837 1.34561890
N 0.11267067 1.34355391 1.04871938
N -0.56519260 0.10298978 -1.28260444
H 0.83014653 -2.17281924 -1.18707248
H -2.23532613 -1.03117210 -0.41108536
H 2.02268910 -1.29812852 -0.42484066
H -0.37022292 3.34454942 1.01030773
