11

N 1.3671032 -0.6652974 2.5931094
C 0.65998036 -0.6734636 1.6805302
C -0.24452746 -0.65321094 0.5151567
C -0.5317787 0.74230814 -0.074429594
C 0.24350424 0.21960185 -1.2914639
O 0.40232956 -1.0776892 -0.68480635
H -1.12252 -1.265544 0.7479767
H -1.5921007 0.93400115 -0.24411453
H -0.08181645 1.5792767 0.46052104
H -0.31366226 0.16225423 -2.2298725
H 1.2134881 0.6977633 -1.4726079
