13

C 1.27731118 0.17809742 -0.24577320
C -0.22936200 0.38154103 -0.33099198
N -0.70305715 1.54352958 -0.91759855
O 1.69246730 -0.70943520 0.76834534
C -1.03620729 -0.89840203 -0.28959207
O -0.59430445 1.34187061 0.74438073
H 1.49829890 -0.28729914 1.61437778
H -1.52967868 1.19270764 0.95013072
H -0.70560084 -1.56498516 0.51297942
H 1.74405167 1.17051235 -0.17011196
H -0.90072503 -1.41395842 -1.24720304
H -2.10262893 -0.67074227 -0.19207947
H 1.58943555 -0.26343658 -1.19686355
