11

C -0.008485989 -0.005997289 0.071365386
C 0.37988937 0.23663534 -1.1480088
C 1.6784098 0.06521748 0.18725918
N -0.66672176 -0.04070152 1.1671225
N -2.0528789 0.093564175 1.0003334
N -2.4617703 -0.061265826 -0.16183104
H 1.7944148 -0.8130142 0.8301215
H 0.58070415 -0.51865953 -1.8999393
H -3.4769156 0.07584388 -0.10050714
H 2.3706012 -0.035098467 -0.65034074
H 1.8627529 1.003476 0.70442504
