11

C -1.132499 1.1456219 0.60457075
C -0.21873921 0.030438438 0.2088996
C 0.7636721 -0.014313407 -0.7460295
N 1.2460917 -1.276984 -0.6561194
N 0.6119023 -1.9777266 0.2862603
N -0.27207428 -1.1948743 0.8124295
H -2.179098 0.8585953 0.45891896
H -0.93503 2.0399272 0.0083022155
H -1.0035404 1.3998959 1.66047
H 1.141693 0.7117702 -1.4502102
H 1.9776211 -1.722351 -1.1874921
