11

C -0.02855656 0.80350216 1.53400764
N 0.15541563 -0.14680830 0.45806284
C -0.22035288 0.10133898 -0.81366919
O -0.75761997 1.10868198 -1.23499700
C 0.09599423 -1.05364889 -1.76155048
O 0.62632752 -2.07458729 -1.40456430
H -0.50298923 1.69223626 1.11371937
H -0.67728304 0.38728628 2.31284090
H 0.58700859 -1.04541328 0.62640686
H 0.93209713 1.08262326 1.97514990
H -0.21004131 -0.85521131 -2.80540658
