11

C -0.7721857 0.87842715 1.5463347
N 0.5834663 0.5141453 1.1779895
C 0.83864045 -0.05491644 0.09720469
O -0.14321142 -0.3875928 -0.83981764
C 0.2501676 -1.0253288 -1.9656222
O 1.3765721 -1.3345832 -2.2432065
H -0.7872169 1.9534031 1.7510746
H -1.0185399 0.3659868 2.4806235
H -1.5369415 0.6448464 0.7962192
H 1.8413357 -0.33796996 -0.2074144
H -0.63208663 -1.2164177 -2.5933855
