11

C 0.92351353 0.36535043 1.4188913
N 0.33276927 -0.2748582 0.26314604
C -0.5775245 0.33083946 -0.5271558
O -1.032676 1.45153 -0.39372873
C -1.0347767 -0.5501409 -1.6879079
O -0.6209969 -1.6662235 -1.872715
H 0.49686196 1.3670636 1.4970965
H 0.6921758 -0.19331981 2.3326929
H 0.5932794 -1.215678 0.00028547528
H -1.7810379 -0.05819636 -2.338873
H 2.0084121 0.44363332 1.3082682
