11

C -1.1150842 0.3401274 1.9609381
N -0.2514376 -0.048517328 -0.9046199
C -0.5590056 0.28794077 0.3313278
O 0.3110338 0.25492138 1.2679012
C 1.1173353 -0.33184147 -1.3558915
O -1.6029797 -0.6043692 2.5064428
H 1.445085 0.43109554 -2.0657277
H 1.1470833 -1.3147845 -1.8318636
H -0.99882007 -0.08803901 -1.5795643
H -1.2710408 1.4049417 2.157992
H 1.7778308 -0.33147514 -0.48693457
