9

N 0.18165591 -2.4916296 -1.1067154
C -0.15770717 -1.455051 -0.7255562
C 0.43408725 0.64139736 0.60319436
C -0.6072964 -0.12341262 -0.25194153
N -0.2963374 1.01025 -0.9573862
H -0.023300018 0.99593705 1.525376
H -1.5904831 -0.19205458 0.24118483
H 1.3523074 0.06333754 0.6857472
H 0.70707333 1.551226 -0.013902384
