9

N 0.49892864 -0.3807757 0.14896286
C -0.11909849 -0.7364216 -2.0840695
C -0.27575213 -0.07764716 -0.8077244
C 0.28090683 0.3165779 1.4005896
N -0.043586392 -1.229501 -3.1237612
H 0.06276097 -0.42655373 2.173936
H -1.0840183 0.66097915 -0.76387316
H -0.53223276 1.0569558 1.3714215
H 1.2120917 0.8163862 1.6845187
