11

N 2.2593682 -0.64244825 0.7246169
C 1.1063316 -0.3169729 0.34144065
O 0.5095991 -0.89970213 -0.7247729
C -0.8554145 -0.49861747 -0.75591755
C -0.8356201 0.80317587 0.036391046
O 0.2862622 0.6201738 0.8972577
H 2.5483217 -0.062597156 1.5053227
H -1.4714072 -1.2653847 -0.27562046
H -1.1615466 -0.37576154 -1.796669
H -0.66214377 1.6750147 -0.60219646
H -1.7237502 0.96311975 0.6501472
