10

O 1.31615899 0.78079369 -1.36848305
C 0.42733423 0.24477137 -0.28414885
N -0.12164128 -0.90475440 -0.56341767
C -0.85072981 -1.06423940 0.60079533
C -0.64620380 0.03028612 1.41663544
N 0.21771797 0.91939892 0.80346400
H 1.21904623 0.08225528 -2.04978932
H -1.45749898 -1.94612592 0.76250240
H -1.05098134 0.24401453 2.39682127
H 0.94679784 1.61359943 -1.71437974
