10

O -1.6468827 -0.74700487 1.0053122
C 1.4846345 0.4108591 -0.010804638
N 0.75740254 0.08166062 1.1252369
C 0.7242311 0.24667928 -1.1544664
C -0.35716286 -0.230931 0.5508458
N -0.5231371 -0.18383381 -0.75417495
H 2.5101051 0.74308676 0.07381197
H -2.139601 -0.06774156 1.4972342
H -1.7869991 -0.6654499 -0.14060992
H 0.97740954 0.4126754 -2.1923852
