11

C 0.53968790 1.55234150 -0.12606539
N 1.11738246 0.24104808 -0.31493039
C 0.14985020 -1.89036067 -0.07287396
N 0.13685269 -0.57920189 -0.05010931
C -1.06016924 0.16706840 0.30040961
N -0.86451132 1.40785224 0.26659724
H -0.75544500 -2.42294089 0.18150908
H 0.58195236 2.14953191 -1.04550920
H 1.06122582 2.11797516 0.65686803
H 1.06989062 -2.38708548 -0.34406815
H -1.97671655 -0.35622845 0.54817246
