12

O -1.2657118 -0.54281723 -2.7640615
C -1.3969122 0.20187305 -1.6408638
C 0.33999422 -1.3430864 1.3624212
N 0.85815 0.91452587 1.0002882
N 0.9755325 -0.27028054 1.7009917
C 0.5724979 1.0259248 -0.35546497
N -0.45876294 0.5954511 -0.8764245
H 0.7788205 1.7301376 1.5838367
H 1.664741 -0.16777846 2.4527879
H -0.36846653 -0.4571931 -3.0969026
H -2.4246135 0.44790655 -1.4019909
H 0.72473043 -2.1346633 2.0353823
