12

O -1.04907337 -1.15211189 -2.66623252
C 0.16392613 1.13328440 -0.44206982
C -1.41204089 -0.42229627 -1.58504153
N -0.65846736 0.33067676 -0.88894260
N 0.49906671 1.22793160 0.90358846
C 0.82277466 -1.03501874 1.42388437
N 1.04365868 0.21436853 1.66820587
H -0.24771298 -0.78018977 -3.04393509
H 0.14805212 2.00320234 1.44004772
H 1.66745667 0.60712859 2.38047559
H -2.45492398 -0.53749413 -1.31506556
H 1.47728363 -1.58948087 2.12508500
