10

N -0.35093233 -0.9739153 -0.7360335
C 1.4774797 0.28416008 -0.49868065
N -1.8494588 0.060473736 0.7411911
O 0.88431 -0.8474063 -1.2054082
C 0.5121676 0.84346247 0.42848584
C -0.5937827 -0.035403345 0.165469
H -1.8481107 0.54139066 1.6267029
H 2.3756921 -0.08949751 0.005151569
H -2.39404 -0.7911951 0.73611444
H 1.7866751 1.0079305 -1.2629929
