10

N -0.74911823 -0.84825483 -0.57679755
C -0.00724548 -0.43453849 0.43856020
N 0.18405471 -1.25869325 1.53470982
O -0.85687081 0.11364098 -1.48525039
C 0.50748272 0.89985212 0.30012027
C -0.07628138 1.24081213 -0.98333213
H 0.68092469 1.46767864 -1.74189852
H 0.07335144 -2.24770109 1.35710757
H 1.00535059 -1.02747661 2.07083106
H -0.76164824 2.09468039 -0.91405083
