11

C -0.9362008 1.3032478 0.29385358
N -0.08925948 0.15929937 0.028383218
C -0.3812081 -1.1512477 0.010564324
N 0.6964103 -1.8584669 -0.27473193
C 1.6397225 -0.8967899 -0.42344716
N 1.2167953 0.33887583 -0.2501523
H -0.5766357 1.8287506 1.1809053
H -0.914152 1.9806824 -0.56318355
H -1.9569023 0.95521444 0.4615532
H -1.3704749 -1.544553 0.20493054
H 2.671905 -1.1150132 -0.6686751
