11

C -1.2387624 -1.1925105 -1.116777
N -1.8401456 0.03233414 -0.65696895
C 1.4244951 0.07452448 0.7979356
N 0.2018446 -0.09238276 0.03428401
C -0.86644703 0.69098127 -0.0022935548
N 0.025191413 -1.2223217 -0.6961672
H 2.2695754 -0.11247947 0.1365174
H -1.9385079 -0.27764907 -1.7950315
H 1.4652944 1.0927937 1.1867912
H 1.4326861 -0.6439498 1.6197001
H -0.93522364 1.6506599 0.49201006
