11

N 0.96843094 0.46358535 -2.1421378
C 0.57674825 0.24092253 -0.95862776
C -0.7993573 -0.118824355 -0.64403915
C -1.150744 -0.34202874 0.62562925
C -0.12585187 -0.20747057 1.6410025
N 1.0963463 0.10863241 1.4173428
O 1.4622761 0.33490148 0.103573
H 1.9603167 0.6991158 -2.1632297
H -1.4808211 -0.18739197 -1.4833449
H -2.1613326 -0.6167612 0.9135084
H -0.34601128 -0.37468073 2.6903229
