11

C -1.9674903 0.0030182316 -0.7693041
O 1.5630109 0.9178644 1.0058861
C 1.353198 -0.3612104 0.49624014
C -0.6501863 0.05430665 -0.6461599
O 2.0649388e-05 -0.68080044 0.3113558
H -2.452878 0.5563066 -1.5653554
H -2.5818193 -0.58026534 -0.09162847
H 1.1158358 0.98151964 1.8617997
H -0.0031729569 0.63539356 -1.3040624
H 1.7412729 -1.1396127 1.163529
H 1.8822085 -0.38652048 -0.46230063
