10

N -0.8477809 0.7370798 0.15012465
C 0.20986517 0.08894666 -0.2531633
C 0.38822615 -1.1357416 0.51122075
O -0.3930398 -1.4585501 1.3926284
C -1.61727 0.69030017 1.1171577
N 1.0686357 0.47882396 -1.2867538
H 1.2748158 -1.7407385 0.26172078
H 0.62225324 1.12017 -1.9276127
H -2.637893 0.33397955 0.9818196
H 1.9321877 0.8857299 -0.94714266
