10

N -0.34125130 -0.83157720 0.61166161
C -0.84242691 -1.61105311 1.40291832
C -0.03415604 0.14939755 -0.16189253
O 0.68222326 1.51496714 1.63990792
C 0.44636410 1.38992037 0.46008810
N -0.22358671 0.10219076 -1.55272580
H 0.56993423 2.21868352 -0.26866302
H -0.22206621 -2.41785334 1.80113222
H -0.66591662 -0.75730848 -1.85350199
H 0.63088208 0.24263256 -2.07892483
