10

O 1.6035099 -0.88575566 -0.24549678
C -0.7219506 -0.9585206 -0.56471837
C 0.4560699 -0.15493856 -0.21030827
N -1.9096435 0.61427486 0.5190448
N 0.6159945 1.235602 -0.34691212
C 0.033794843 1.0198828 0.7890616
N -1.8039945 -0.32886654 -0.1941063
H -0.68905586 -1.9527572 -0.9740462
H 2.3344607 -0.27236852 -0.4174024
H 0.080814525 1.6834475 1.6448841
