10

O 1.14180918 -1.05015185 0.98480574
C 0.12565594 -0.37510452 0.32576372
C 0.57771563 1.01128032 0.07776332
N 0.03476887 1.71399725 -0.85718858
N -0.44679830 2.32489441 -1.68199562
C -0.90476161 -1.04121621 -0.40757981
N -1.28861892 -0.64091354 0.73414673
H -1.33027412 -1.57075673 -1.25011003
H 1.32999759 1.47695322 0.69788419
H 0.76050591 -1.84898225 1.37651026
