10

N 0.40458217 -0.48200855 1.5492826
C -0.115895696 0.9441615 -0.44572747
C 0.24300797 -0.6933024 2.6914942
C -0.5636918 -0.4519421 -0.76115215
C 0.58608645 -0.22746438 0.18024044
H -0.33273286 -0.8725481 -1.7350298
H 0.43223622 1.5048568 -1.1983124
H -0.7460719 1.5422198 0.2032271
H -1.4960222 -0.7930687 -0.32257032
H 1.5885017 -0.47090396 -0.16145192
