10

N 0.81401348 0.89766402 1.15233539
C -0.06549234 0.07349067 -1.04587552
C -0.87671191 -0.57572795 0.03558521
C 1.02469423 1.80676780 1.86264700
C 0.55067211 -0.18647811 0.29951646
H -1.09679562 -1.63652060 -0.03492171
H -1.64412212 0.02185706 0.51718161
H -0.28698733 1.10596230 -1.29261444
H 0.28668361 -0.53230366 -1.87665662
H 1.29404576 -0.97471147 0.38280281
