11

N 2.19539337 0.47621523 0.43776869
C 0.99706414 0.86865249 -0.00656159
N 0.00691920 0.31870523 -0.80850701
N -2.04655404 -0.65362653 -0.55006224
C -0.78397489 -0.63894414 -0.09173206
N 0.10028914 1.75826166 -0.07284627
O -0.32398721 -1.37842846 0.75404280
H 2.27841902 -0.52133285 0.56344835
H -2.33907797 0.01132629 -1.24625752
H 2.62782213 1.04126664 1.15152114
H -2.71231292 -1.28209552 -0.13081368
