11

N 0.76354784 0.13611007 0.94152397
C 1.1167736 0.3014971 -0.88666916
N -1.2897472 -0.060136147 1.8471813
N 1.5782882 1.0063574 -0.010968548
C -0.5969273 0.10927789 0.69061327
N 0.9582974 -0.32762697 -2.0024433
O -1.1593932 0.1699304 -0.42174882
H -0.003437819 -0.54872936 -2.2249703
H -0.81978345 0.08102696 2.7232466
H 1.7430972 -0.78171647 -2.451807
H -2.2907145 -0.08599084 1.7960422
