11

N -1.3789526 -1.0496207 -0.6606898
C 2.2634099 -0.092505015 2.0760891
C 0.034368303 0.893532 -0.7467612
N 0.20417087 -0.97090995 0.9471035
C -0.33841032 -0.39710534 -0.08026384
N 1.3074037 -0.40402365 1.4684454
N 0.85649496 1.7858973 -0.39998206
H 1.336208 1.5584687 0.47014531
H -0.5267785 1.0640881 -1.6724913
H -1.7387407 -1.8506302 -0.1642082
H -2.0191734 -0.53719145 -1.2373867
