10

N 0.60322595 -0.80849797 1.5065999
C 0.014161424 0.16874476 0.7420989
O -0.4025521 1.2160999 1.1864611
N -0.098536044 -0.1759302 -0.6062847
C -0.639322 0.6740727 -1.5602344
O -0.7678136 0.34481525 -2.713586
H 0.82882315 -0.5129408 2.4436574
H 1.2496809 -1.4551978 1.0814257
H 0.13507824 -1.1025292 -0.9326737
H -0.9227458 1.6513635 -1.1474639
