10

N 0.82617474 -1.5101658 -0.4566964
C -0.20312768 -0.6480248 -0.36242488
O -1.3322971 -0.81729305 -0.7806888
C 0.20324133 0.64654696 0.36472172
O 1.331795 0.8154333 0.7847176
N -0.82560915 1.509311 0.45698455
H 1.7139717 -1.2330956 -0.063059896
H 0.7023388 -2.396987 -0.9112082
H -0.70285714 2.3988178 0.9062542
H -1.7136307 1.2354571 0.061400205
