10

N -1.3974729 -1.2396557 0.8997956
C 0.8499251 0.63521224 -0.9980917
O 0.10119833 0.14372413 0.03901609
C -0.7738771 -0.89476717 -0.25361848
O -0.9521508 -1.3882743 -1.3252295
N 1.5853267 1.6015971 -0.46549883
H -2.0374787 -2.0157275 0.88025045
H 1.5359337 1.8669337 0.51427627
H 2.2158241 2.1108606 -1.062628
H -1.1272286 -0.8199031 1.7717279
