10

N -1.24616556 -1.29033903 -1.03990650
C -0.00842360 -1.09053606 -0.52390506
O 0.90662428 -1.85471508 -0.57288235
C 1.16806508 0.56510888 0.66206509
O 0.00161690 0.16911388 0.06178889
N 0.91991558 1.78043022 1.13087875
H 1.65613785 2.26974593 1.61252844
H -1.44615310 -2.18053106 -1.46398197
H 0.02724162 2.25259853 1.01689315
H -1.97885924 -0.62087629 -0.88347834
