11

N -0.42551658 -1.6478323 -1.0636784
C -0.23449756 -0.48894072 -0.3583906
C 1.0131052 -0.13125628 0.19977595
N 1.1634917 1.0155356 0.82319343
C 0.06506555 1.7897174 0.87363976
N -1.1201487 1.4900422 0.3751191
N -1.2774049 0.32529652 -0.24514171
H 0.17816506 -2.4299488 -0.8713143
H -1.3917161 -1.8835404 -1.2359775
H 1.8777902 -0.7892669 0.1312199
H 0.15166585 2.7501936 1.3715544
