10

C -0.42760061 0.03176857 -0.26284867
O -1.65064226 -0.30936016 -0.74096856
C 0.21742817 -0.63450815 0.70021820
O 1.52625395 -0.28059368 1.01211720
N 0.05646988 1.18220292 -0.87013617
H 1.51251319 0.15948501 1.87328313
H -0.16652885 1.21808947 -1.85687455
H 1.04565270 1.29026198 -0.68955671
H -1.89247476 -1.17369718 -0.38370976
H -0.22107155 -1.48364917 1.21847592
