12

O 1.5906355 0.9015346 0.06459313
C 0.7582927 1.4701061 0.7524434
C -0.81317836 -0.3174501 0.6623666
O 0.5704873 -1.0753534 -1.2579471
C -0.93806314 -0.43035766 -0.8166214
O -0.4155222 1.0221153 1.1128312
H -1.4995005 -1.3662249 -0.96730185
H -1.7979485 -0.41682908 1.1225224
H 0.5766332 -0.8508364 -2.2054393
H -0.12862532 -1.0245255 1.166223
H 0.9423276 2.4630754 1.1799607
H 1.1544614 -0.37525436 -0.81363076
