10

O -1.36284711 1.33553357 -0.05033120
C 1.09884427 -1.07749641 0.74999571
C -0.96490933 -0.03057609 -0.07420836
C -0.68294819 0.84497771 -1.20965897
N 0.05870748 -0.30321985 0.85512761
H 1.40128877 -1.42271746 -0.23210700
H 1.61319663 -1.41205868 1.64405727
H -1.28322034 0.75129819 -2.11236492
H -0.18284797 0.02712278 1.78552210
H 0.30473600 1.28713627 -1.35603182
