10

O 0.68824002 -1.10909524 -1.37442445
C 0.00414761 -0.02239937 0.89725846
N -0.12943405 1.19607825 -0.83777074
C -0.12353976 1.40854747 0.43749010
C 0.01873114 -0.26139406 -0.56222276
N -1.14050591 -0.69523772 0.16404895
H 0.49947988 -0.49553147 1.73582679
H -0.28875164 2.35903376 0.93396045
H 1.49543857 -0.67423856 -1.68005713
H -1.02380588 -1.70576320 0.28589042
