10

O 1.7685138 -0.17042063 0.16224235
C 0.5079614 -0.5164835 -0.017971814
N -0.074860364 -0.5507118 -1.2533283
C -0.77906245 0.56315494 -0.49895114
C -1.0642431 0.06796917 0.800492
N -0.29601935 -0.98468214 1.0609361
H -0.78381765 1.557873 -0.9175397
H 0.54906803 -0.14586505 -1.9464896
H -1.7777185 0.49444467 1.50439
H 1.950178 -0.31527874 1.10622
