11

N -1.5550258 -0.4827065 -0.9395469
C 0.76561344 -0.049340915 0.7242577
C -0.06061229 -1.0939087 0.92754924
C 0.34502012 0.78827566 -0.39432368
C -1.2084392 -1.2399027 0.04053285
N 1.2383354 1.7295564 -0.4618799
O -0.6968697 0.6345141 -1.1753857
H -1.9000305 -2.069916 0.17206593
H 0.07483598 -1.8344774 1.7114286
H 1.7553647 1.1255327 0.5275781
H 1.2418078 2.4923732 -1.1322763
