11

N 0.9668234 0.46781778 -2.1404839
C 0.57953286 0.24228227 -0.95809275
C -0.79875267 -0.117989056 -0.6444196
C -1.150263 -0.33921877 0.6271073
C -0.123417415 -0.21022621 1.6420429
N 1.0966718 0.100040175 1.4177135
O 1.459995 0.328833 0.10112789
H 1.9583225 0.7041736 -2.1669042
H -1.480625 -0.18748245 -1.4833344
H -2.1610985 -0.60967505 0.91528237
H -0.3471894 -0.37855536 2.6899602
