11

N -1.90812311 -0.35134177 -0.95407577
C 1.45471239 0.40239751 -0.26017334
C 0.40390909 0.22120877 -1.12394854
C -0.73803693 -0.16139057 -0.35616407
C 1.34744322 0.21573095 1.15834004
N 0.28146301 -0.16904917 1.77798180
O -0.80820810 -0.38438208 0.96185712
H 2.43203022 0.70470042 -0.63417908
H -1.90815332 -0.24637794 -1.95738185
H -2.74116030 -0.60746719 -0.44333347
H 2.18412340 0.37597100 1.83107647
