11

N 1.55357361 0.14756612 1.33714172
C -0.50878861 1.17522043 0.29816163
C -0.99674793 -0.51616625 -1.12729966
O -1.37264021 0.66048536 -0.73462542
C 0.51061422 0.31672636 0.60232923
O -1.45598370 -1.25142505 -1.94813845
N 0.23229045 -0.87033964 -0.31810334
H 1.69955206 0.95703553 1.93586250
H -0.76731393 2.15912588 0.64760955
H 0.07104053 -1.72072975 0.23197889
H 1.03440348 -1.05749903 -0.92491623
