9

O 0.70807090 0.79884078 -0.51459707
C 1.09741077 -0.41723232 0.17091623
N -1.07133426 -0.28076571 0.23760219
C -0.13908759 -1.11042198 0.65987324
C -0.62163011 0.88805335 -0.47693557
O -1.31882702 1.74253135 -0.92961835
H 1.65045490 -1.05265510 -0.52817302
H -2.06523181 -0.41207112 0.37840752
H 1.76017424 -0.15627951 1.00252457
