10

O -2.386585 0.9535869 0.40793675
C -1.7665648 -0.058882736 0.6267416
C -0.3561438 -0.22262935 0.21241158
N 0.27835977 -1.3403604 0.46471116
O 1.5327804 -1.1757756 -0.029467467
C 1.637948 0.05125067 -0.5781402
C 0.4700514 0.7202754 -0.4626804
H -2.2111425 -0.92596453 1.1498244
H 2.6031752 0.28728217 -1.0043688
H 0.19812116 1.7112175 -0.7869685
