11

C 0.93706053 1.0925646 -0.76727235
N 0.08883848 0.13748345 -0.0845982
C 0.38062596 -1.0701528 0.42527112
N -0.69703406 -1.6147861 0.9578982
C -1.6401265 -0.6660276 0.7350404
N -1.2176114 0.41149017 0.108468905
H 0.57430667 1.2455599 -1.7864829
H 0.9199787 2.0444648 -0.2317665
H 1.9577962 0.70479083 -0.7951957
H 1.3677961 -1.5106066 0.39135695
H -2.6716306 -0.7747805 1.0472801
