10

O -0.54919266 -0.39825777 1.85835052
C -0.50154103 0.08795017 0.55919597
C 0.88237480 0.73243512 -1.04620228
C 0.43000747 1.18564659 0.20239914
N 0.47318014 -0.51327816 -1.40079704
N -0.24359941 -0.97877281 -0.44171145
H -0.74740822 -1.84598609 -0.57026387
H 1.55850679 1.23568188 -1.72752315
H 0.18767877 0.01675824 2.32530748
H -1.49000657 0.47782253 0.24124473
