10

O -1.5979348 -1.0741142 0.56473315
C 0.8582904 1.2431931 -0.34159476
C -0.56442106 1.0479357 -0.36660543
C -0.57700133 -0.35231668 0.018506015
N 1.5827478 0.21888752 0.118613146
N 0.73361427 -0.73267406 0.4251711
H -0.55622995 -0.38768822 -1.1446853
H -2.3371367 -0.45901585 0.66600096
H 1.0693384 -1.6481351 0.6862308
H 1.3887328 2.1439276 -0.62636966
