11

N 1.4559921 -0.34477106 -0.223844
C -0.5951258 0.827796 -0.22859114
C 0.8961823 -1.4967843 0.4662024
N -1.240286 1.8770496 -0.5360524
C -0.40722176 -1.3583655 0.73844504
C 0.8276337 0.71555454 -0.55770797
O -1.1547693 -0.23430826 0.40604854
H -1.0324469 -2.083411 1.241705
H -2.215309 1.8010703 -0.23920944
H 1.3109993 1.5421625 -1.0704197
H 2.1543508 -1.2459927 0.0034237772
