11

N 1.5531237 1.3053669 -1.0211821
C 0.43744525 -0.7535335 -0.7033925
C -1.0927035 0.36314034 1.188022
N -0.47124913 -1.4113191 -0.053610332
C -1.3561945 -0.95162153 0.97795886
C 0.6607888 0.6528675 -0.40336964
O -0.1439231 1.1688746 0.5572453
H 1.5815318 2.271465 -0.693687
H -1.6207483 0.97325796 1.9114239
H -0.5901904 -2.386939 -0.29467073
H 1.0421194 -1.2315589 -1.4647377
