11

N 1.6136727 -1.6031868 0.64384687
C 0.7583998 -0.734815 0.30434662
C 0.8581083 0.67077994 0.73710066
N 0.023410954 1.5896021 0.43282637
C -1.0543324 1.2061018 -0.377684
C -1.2034804 -0.04819094 -0.8040657
O -0.32543904 -1.0396367 -0.48647618
H 1.3892481 -2.5184264 0.25571772
H 1.7157469 0.90886766 1.3629305
H -1.7639222 1.9801735 -0.6406427
H -2.0114129 -0.41126895 -1.4279003
