11

N 1.6152021 -1.6002557 0.64268374
C 0.7575129 -0.73500746 0.30548182
C 0.8563815 0.6699585 0.7400882
N 0.02182625 1.587802 0.4332298
C -1.0547149 1.205774 -0.3784885
C -1.2026465 -0.04850708 -0.8054529
O -0.3263572 -1.0413331 -0.48737657
H 1.3933536 -2.5163736 0.25599736
H 1.7126272 0.90933526 1.3669239
H -1.7639889 1.9799645 -0.6413581
H -2.0091958 -0.4113573 -1.431729
