11

N -0.4681375 1.4110115 -0.0020904993
C 0.8059176 -0.5922117 0.17250517
C -1.6947259 0.81586945 -0.40416604
N 1.9049346 -1.1611152 0.4430428
C 0.6735935 0.84949523 0.2715958
C -1.4916391 -0.5311145 -0.47805563
O -0.322843 -1.2377867 -0.22304091
H -0.5059113 2.4201794 0.07893531
H 1.8293598 -2.1725116 0.32596055
H -2.2570727 -1.2429887 -0.76546574
H 1.5265241 1.4411732 0.58077925
