9

N -2.1973429 0.31054974 -1.4356425
C -1.275773 0.44996646 -0.75169706
C -0.10241685 0.62208986 0.085300095
C 0.47050214 -0.5776132 0.7563875
N 1.1750748 0.055889238 -0.34298593
H -0.034746695 1.5926576 0.5698827
H 0.9268111 -0.4544807 1.7357746
H -0.026281802 -1.5288035 0.5882121
H 1.0641731 -0.47025543 -1.2052314
