9

N -0.59127516 -0.2828497 -1.3917991
C -0.33853588 0.20772997 1.2282258
C -0.6422407 0.49474847 -0.1363169
C 0.5988538 -0.2356262 -0.5615291
N 0.66701007 0.3143834 1.8818
H -0.7629134 1.5611973 -0.31107962
H 1.3921883 0.3440436 0.73343205
H -1.0636392 -1.1865078 -1.3378125
H 0.74055207 -1.217119 -0.10492041
