9

N -0.31033072 2.0057468 -0.22729969
C 0.5745712 -0.39213565 -0.5157433
C 0.32690686 -1.2683674 0.7740106
C 0.12617314 0.8744035 -0.31902778
N -0.46152762 -1.4432207 -0.36605203
H -1.4132446 -1.0616932 -0.35645068
H -0.19753674 -0.735746 1.5913036
H -0.0792014 2.5864434 0.5729286
H 1.4341898 -0.56543064 -1.1536691
