11

C -0.96702104 0.62156093 0.94806482
C 0.16315629 0.48243361 0.29134094
C 1.44905790 -0.05839703 -1.61259284
N 1.25103286 0.36317920 -0.23551005
N -1.11654343 -1.67458186 1.59561232
N -1.51756834 -0.53347406 1.64891867
H -1.51257152 1.55424426 0.99847978
H 2.00298661 -1.00023804 -1.59732183
H -2.32504762 -0.24593372 2.24031528
H 0.50981524 -0.19955670 -2.15773267
H 2.06270277 0.69076296 -2.11957440
