11

C -0.345573 0.7462257 -0.5084729
C 0.27632 -0.121622555 0.3066857
C -0.010971689 -1.7576442 0.300076
N 0.050694108 2.1263752 -0.314696
N 0.8589672 2.5533395 0.4804661
N 1.0302514 -0.5646616 1.1936762
H 0.25676283 -2.00498 -0.72775084
H -1.0787129 -1.7740154 0.5195223
H -0.46240884 2.7462626 -0.9732913
H -1.0771251 0.48558006 -1.2586114
H 0.50179595 -2.4348586 0.98239636
