11

N 0.68200564 -1.166302 -0.07846912
C -1.0854446 -0.29141024 0.9225731
N -0.43749493 -1.2158896 -0.9313425
N -1.515394 -0.9770971 -0.08867269
C 0.3180894 -0.042646114 0.6538186
C 0.6173681 1.1321695 -0.065420344
H 1.5287158 -1.0793468 -0.6294045
H -0.16676326 0.21269679 -1.1687924
H 0.19864875 2.082453 0.2572879
H -1.7324922 0.12999952 1.6760552
H 1.5927613 1.2153733 -0.5476334
