11

N 1.4715506 0.37113002 1.3594402
C 0.43820012 0.20130548 0.43980938
N -0.27804276 1.2312453 0.026492026
N -1.2144039 0.6835604 -0.7770667
C -1.0981714 -0.6535817 -0.8920786
C -0.02843091 -1.0218165 -0.10965202
H 2.2848775 -0.19574879 1.1582379
H 1.7300694 1.3459228 1.4447501
H -1.890507 1.2883343 -1.2121394
H -1.7734977 -1.2354486 -1.5012715
H 0.35835624 -2.0149024 0.06347869
