9

N -0.88551265 -0.57640445 -1.2239587
C 0.234295 -0.14649445 -0.55197465
C -0.055231817 0.36606073 0.78677577
N 0.96069705 0.80372673 1.4848472
N 1.8367383 1.1756978 2.0848749
O 1.3483316 -0.15762755 -1.0417031
H -0.701507 -1.093178 -2.0719163
H -1.7072272 -0.84248745 -0.70631415
H -1.0305831 0.4707067 1.2393693
