11

N -1.5240347 0.7334929 -0.2506944
C 0.7969564 0.6443046 -0.46415502
C 0.50808597 -0.53460085 0.25284153
C -0.42370683 1.2931032 -0.7011178
N 1.0433593 -1.5595429 0.78723633
N -1.0060993 -0.472959 0.38457412
H 2.0525012 -1.5372611 0.66786945
H -1.2722706 -0.47937047 1.3707058
H -1.4210258 -1.2981514 -0.052646555
H -0.53360903 2.2342083 -1.2312739
H 1.7798433 0.97677666 -0.7633394
