11

C 0.01740140 0.25563073 -0.74744551
N 0.46417780 -0.56915724 1.11071141
C 0.41568323 0.81624912 0.63708759
O -1.21184738 0.71948788 -1.22671812
C -0.02170686 -1.11646864 -0.04163962
O -0.38492944 -2.22277851 -0.35329604
H 0.82026479 0.32939002 -1.49283073
H -1.64188678 -0.00936775 -1.69577617
H -0.38064025 1.41502761 1.08264439
H 0.54978084 -0.95694625 2.03947327
H 1.37370262 1.33893315 0.68778950
