11

N 1.1435516 -0.04224912 -0.07060821
C 0.7320351 0.033043668 -1.4558945
C 0.046872742 0.018574927 0.5969699
N -0.72267646 0.12852399 -1.5366913
C -1.1157882 0.12096688 -0.3222821
N -0.050874185 0.046278268 1.9641193
H 1.0636734 -0.8528459 -2.0105217
H -2.1625328 0.18838501 -0.037098847
H 1.1753343 0.90593606 -1.9491148
H 0.789176 -0.22327188 2.4538124
H -0.8987716 -0.32334194 2.36731
