11

N 0.19230068 -0.94466895 -0.70991486
C 0.4736988 0.277938 -0.23493876
C -0.40361825 0.6210407 0.8037534
N -1.2267528 -0.42662212 1.0384941
C -0.84387326 -1.3522835 0.03365003
N 1.4574347 1.0544987 -0.803781
H -1.1861334 -2.380231 0.086435795
H 1.8863944 1.7353197 -0.19901426
H 2.1160321 0.5282902 -1.3581557
H -1.9502747 -0.6698466 0.007836468
H -0.5152083 1.556565 1.3356348
