11

N -0.22658859 1.506343 0.64622694
C 0.67804897 0.687206 1.0306569
C -1.3839219 0.115234815 -0.6504892
N 1.8955827 -1.1899949 0.12508863
C -0.80007505 1.5053717 -0.5257404
C 0.9007756 -0.41612333 0.060218517
O -0.11662072 -0.6000433 -0.8362796
H -1.9076151 -0.26530153 0.23325089
H 1.807275 -1.946216 -0.5511902
H 1.1067523 0.6659339 2.0266728
H -1.9536132 -0.06241032 -1.5584154
