11

N 1.9171442 0.6244939 -1.2076262
C 0.8873617 0.26686972 -0.56620365
C 0.053544007 1.120153 0.3044397
C -0.93355346 0.38317174 0.7990452
C -0.8065365 -1.0199322 0.27635604
O 0.35009503 -0.99307823 -0.5602655
H 2.305849 -0.15695657 -1.7336676
H 0.27204484 2.1668482 0.46638697
H -1.723703 0.69782215 1.470288
H -1.6697183 -1.3314801 -0.32123414
H -0.6525277 -1.7579112 1.072481
