9

O -0.13393587 1.8001634 -1.6357026
C 0.5255884 0.022316864 -0.33489794
C -0.18887417 1.2983963 -0.43656293
C -0.273267 -2.0800083 0.99801767
C 0.097424395 -1.1138744 0.36797732
H 0.35837033 1.8660983 0.40633237
H -0.5950762 -2.9258215 1.567143
H -1.2010003 1.1981584 0.03293009
H 1.4107705 -0.06542903 -0.96523696
