9

O -0.14187612 -1.1220223 1.1157312
C 0.59098405 0.07316726 1.3100626
C 0.41417363 -0.49431762 -0.034494266
C -0.5078602 0.092409156 -0.9899507
C -1.2460063 0.5776812 -1.8086686
H 1.5492043 -0.037368406 1.8145338
H 1.2505168 -1.0382899 -0.4735707
H -1.908081 1.0072607 -2.52729
H -0.0010550484 0.94148004 1.5936468
