9

O 1.26208529 -0.95629325 -0.12869727
C 0.54101959 0.26677185 -0.23067335
C 0.90850836 -0.30057901 1.07477645
C -0.82091315 0.20277186 -0.72900549
C -1.94885782 0.18602112 -1.15103373
H 1.13380429 1.09847928 -0.61150522
H 0.13955010 -0.79486720 1.66577541
H 1.73358010 0.13695743 1.63398470
H -2.94877645 0.16073804 -1.52362154
