9

O -2.5732112 0.67713577 0.29628265
C -1.6268455 0.09760339 0.76316524
C -0.2999709 0.047193155 0.09506576
N 0.7636272 -0.54925394 0.54322195
C 1.6582425 -0.2807238 -0.45659828
N 1.1816313 0.42465973 -1.4408945
O -0.13005531 0.64821047 -1.0754591
H -1.6596286 -0.44486484 1.724424
H 2.6862106 -0.61996 -0.44920784
