9

O 1.6272525 0.80822796 1.7418263
C -1.0100428 -0.56578434 -1.4500761
C -0.016065035 0.0355719 0.25753495
N 0.17448406 -0.2618813 -1.8889161
C 0.40577376 0.4007099 1.624763
N -1.188007 -0.39720443 -0.10302482
O 0.84651476 0.14130116 -0.7587824
H 0.9419577 0.7641884 2.6928527
H -1.7818681 -0.9251293 -2.1161773
