10

C -1.5200917 -0.8278521 -0.74104625
N -0.330793 -0.32177633 -1.119036
N 1.3844682 0.7036588 0.32425985
C 0.08881657 0.051427342 0.08550535
N -1.770874 -0.75302577 0.56923485
N -0.6858494 -0.16155784 1.122531
H 1.4588015 1.5938953 -0.17259023
H -2.2236056 -1.2660677 -1.4351074
H 2.164233 0.109928586 0.033409767
H 1.434894 0.8713697 1.332839
