12

O 0.5605463 -1.4584885 1.5310693
C 0.28640568 -0.3826069 -0.5831604
C -0.12600942 -1.3218911 0.5435654
O 1.5063734 0.22617637 -0.23139498
C -0.7518586 0.6683067 -0.88466465
O -0.62168586 1.6452978 0.59350276
H 1.8819003 -0.3211783 0.48094893
H 0.33073148 1.4893098 0.7775746
H -1.75938 0.24907792 -0.756198
H -0.5944835 2.0517468 -0.3752625
H -1.0833058 -1.8555331 0.40657488
H 0.37076595 -0.9902178 -1.5025551
