9

N 0.85199857 -0.2997943 0.42177945
C -1.1573827 0.44415486 -0.15040173
C -0.69341034 -0.32838413 -1.2817551
C -0.1986027 0.46495152 0.82740325
N 0.5337251 -0.6766852 -0.87308735
H -0.16853961 0.9408631 1.7994117
H 1.8145994 -0.13106677 0.67864287
H 1.1449108 -1.3340831 -1.332561
H -2.1272984 0.920044 -0.08943199
