9

N -0.77463204 0.24654077 -0.87494206
C 0.57223606 0.31075424 -0.762109
C 0.87071675 -0.11170543 0.5136588
C -0.3860343 -0.40878302 1.0875832
N -1.379228 -0.18886735 0.23865369
H -1.3418552 0.478818 -1.6738833
H 1.1966836 0.64291644 -1.5782794
H 1.8467151 -0.1958675 0.9669911
H -0.60460204 -0.77380615 2.082327
