10

O 0.00472997 -0.79787150 -1.76918813
C 0.55554013 1.00111367 -0.18542968
C 0.32481153 -0.46629362 -0.44470799
N -0.01041904 1.37423731 0.89664403
N -0.72594499 0.21179713 1.32652493
C -0.67796253 -0.88318705 0.61380057
H 1.17983368 1.67866112 -0.75595502
H -0.65716225 -1.49746661 -1.71698360
H 1.26917048 -0.96185319 -0.13694015
H -1.26259721 0.34086270 2.17223514
