10

O 1.1048251 -0.6415878 -1.4609499
C -0.44401136 0.9753051 -0.443702
C 0.17018431 -0.96156865 0.8141417
N -1.3356028 0.835219 0.459545
N -0.9152121 -0.32949775 1.1770049
C 0.6656091 -0.03199007 -0.27683687
H 1.2862496 -1.5618517 -1.2363181
H -1.5342366 -0.6045423 1.9260299
H 1.493578 0.5327397 0.20030245
H -0.49138322 1.7877743 -1.1592171
