10

O -0.7030509 -1.0805511 -1.6766682
C -0.26571083 0.8455583 -0.43186074
C 0.48109424 0.44988248 0.86697376
C -0.5055121 -0.54843944 -0.5247171
N 0.001159696 -0.96385217 0.6628157
H 0.11972531 0.88302493 1.8029017
H -1.0469398 1.5990702 -0.4354832
H -0.24141225 0.10167683 -1.81252
H 1.5718418 0.5001145 0.80413777
H 0.5888049 -1.7864845 0.74442047
