10

O -1.87997047 0.02285735 0.93904445
C 1.00216779 0.17005637 -0.68431794
C 0.59700490 -0.37286206 0.67186278
C -0.65321810 0.03241536 0.39274256
N -0.41135362 0.66917337 -0.83476026
H 1.25738132 -0.57591580 -1.44441935
H 1.12724906 -0.74105721 1.53820827
H -0.91940953 0.29510701 -1.63263302
H -1.84961656 -0.48616485 1.75777433
H 1.72976567 0.98639047 -0.70350188
