17

C -1.85404711 1.60280263 -0.91129324
N -1.45719509 -0.98356053 0.02971473
C 1.83907686 0.45566108 0.30683757
O -0.56775446 1.12824631 -0.55906022
N 0.81992122 -0.54279056 0.07065851
C 1.02243317 -1.81856230 0.72092665
C -0.49091295 -0.16960818 -0.14037435
H -2.54453365 1.56126932 -0.05924552
H 1.84565174 0.80730821 1.34925160
H -1.71095583 2.64077750 -1.21139101
H -2.27086625 1.03143147 -1.75013873
H 0.28878489 -2.52662583 0.34023150
H 0.90834399 -1.74784237 1.81219590
H 2.03115324 -2.17586918 0.49428987
H 1.67924834 1.31148725 -0.35031846
H 2.81601396 0.01718555 0.08048245
H -2.35436201 -0.59131091 -0.22276713
