12

N -0.37743583 -0.35994738 -1.8295819
C -0.50457 -0.6104508 -0.49640658
O -1.4246209 -1.5518578 -0.21166852
N 0.23081061 -0.08219419 0.40562716
C 1.0908574 1.0228528 0.71323377
C 0.70968336 -0.028898995 1.7450936
H -1.2436134 -0.3161094 -2.3430645
H 0.590446 1.9926995 0.6179473
H 0.27873808 0.37605342 -2.0572202
H -1.355128 -1.7359638 0.7385516
H -0.09586588 0.3014204 2.4135265
H 2.1006985 0.9923965 0.30396172
