12

N 0.25494036 0.20666330 0.34184573
C 0.72323836 1.07692169 1.36638326
O -0.84595230 -1.74641284 0.84676900
N -0.28461137 -1.34783329 -1.31214773
C 0.71528046 1.49119514 -0.09803621
C -0.29020981 -0.88800885 -0.02964953
H -0.69681355 -1.38063874 1.73311515
H -0.12921058 1.47976401 1.92840808
H -0.07603979 2.09422380 -0.55657999
H 1.66949411 1.52098656 -0.62415314
H -1.13020051 -1.81073571 -1.60634172
H 0.09008469 -0.69612488 -1.98961328
