11

N 1.6356515 -0.6053227 0.29693422
C -1.4771757 0.13375768 0.62538874
O 1.0771817 -0.6363563 -1.7324241
C -0.47833002 0.60529375 -0.34738275
C 0.74953854 -0.19811366 -0.5714045
O -0.59287345 1.191464 0.9369733
H -1.2930344 -0.7963302 1.1602134
H -0.79444826 1.2192395 -1.1873099
H 1.6920459 -0.26361987 1.2485275
H 2.0006182 -1.0643167 -0.9144901
H -2.5191743 0.41430455 0.48497438
