11

C -0.55536732 -0.47936839 -1.11783116
C 0.05429650 -0.13797972 0.22214237
N 2.06138546 -1.66593161 0.91612565
C -0.00805863 1.22031907 0.77819768
C 1.17233295 -0.98586721 0.63049335
O -0.84459359 0.18531630 1.26605350
H 0.19205631 -0.40434406 -1.91244805
H -1.37471293 0.21324478 -1.33106089
H -0.95210173 -1.49863544 -1.10892037
H 0.76217938 1.56274356 1.46558765
H -0.50741662 1.99050251 0.19166016
