11

C -1.0637535 -0.76465833 -0.26739383
C 0.06776742 1.3802272 -0.9133461
N -0.042290494 2.3731275 -1.493453
C 1.0715013 0.06673163 0.97070444
C 0.15808266 0.12021158 -0.17858559
O 1.415965 -0.5210674 -0.27222028
H -1.9448907 -0.24631709 0.12068648
H -1.2563608 -1.0475305 -1.3062724
H 1.6484503 0.9459089 1.2485592
H -0.8970839 -1.6737201 0.31770027
H 0.8426129 -0.63291335 1.7736205
