12

N -0.40723931 -0.17190824 -0.81156894
C -0.45240506 -1.19345280 0.30233146
N 0.99077129 -0.97676442 0.58287021
C -1.44309173 -0.30599986 1.01122056
C -1.32473504 0.59320217 0.02846484
C 0.94179650 -0.07051303 -0.33033872
N 1.89164692 0.75009883 -0.85163696
H -1.72021985 1.57138934 -0.21856387
H -0.73513981 -2.21174759 0.02658563
H -2.04053973 -0.40354674 1.90610900
H 2.72438936 0.85536640 -0.29384625
H 1.57476639 1.56387611 -1.35162694
