12

C -0.33718573 -1.42434710 1.42737410
C -0.69868356 -0.03810778 -0.38783785
N 0.10957495 -0.38737464 0.51467703
C 0.85509319 1.50676049 -1.20072653
O -0.43388075 0.90549525 -1.30127846
H 0.36328492 -2.26567535 1.38558154
H -1.34933155 -1.80132022 1.21601827
H -0.31845386 -1.03562685 2.45084314
H -1.70374604 -0.44415299 -0.54918361
H 1.63999724 0.75247891 -1.31647175
H 0.89725716 2.23757885 -2.01038336
H 0.97607397 1.99429183 -0.22861265
