10

N -0.82574624 0.87226856 1.352771
C -0.17397027 0.17561905 0.3493679
C 0.34952423 -1.0668447 0.2124034
N 0.98762846 -1.1471386 -1.0268974
C 0.8123803 0.008108842 -1.5535301
O 0.11311057 0.88134235 -0.7742659
H -1.5030578 1.5375496 1.0066261
H -1.2306165 0.2688065 2.0538678
H 0.33270574 -1.903564 0.8957612
H 1.1380414 0.37385228 -2.5161042
