9

N 3.0637743 -1.7873466 -1.9963493
C -1.0871404 0.044592194 0.56115204
O -1.9691201 -0.7505975 0.8024496
C 0.12605776 -0.3746276 -0.15361804
C 2.1595972 -1.351903 -1.4281846
C 1.0698929 -0.82512814 -0.74408907
N -1.1012299 1.3591707 0.8981896
H -0.34352085 1.9842314 0.6772369
H -1.9183111 1.7016088 1.3832127
