9

N 0.25035897 -1.5295435 -0.05144827
C 0.060257975 0.82633394 -0.090302646
O 1.937092 -0.25744012 -0.94166464
C 0.85076576 -0.37583947 -0.4096997
C -0.14473651 2.0941916 -0.03235701
C -1.6580132 2.191998 0.7499701
N -1.3884611 0.9921283 0.6250425
H -0.6475569 -1.5506322 0.39807776
H 0.740293 -2.391196 -0.24761795
