11

O 0.67879856 -1.3271488 -1.137249
C -1.1167786 -0.71866494 0.27725676
N 0.06070971 0.7610629 -1.04879
C -0.34422535 -0.5615773 -0.93236923
C -0.5045481 0.19347657 1.0854234
C 0.5200206 0.8745696 0.31541178
H 0.8208918 0.8200054 -1.716922
H 0.933982 1.8246863 0.6525751
H -1.7161568 -1.5729938 0.5582607
H -0.6313329 0.2990651 2.1565094
H 1.2986393 -0.59248114 -0.21010664
