11

O 2.15615009 0.40345975 0.37088185
C 0.82948986 0.16795627 0.20023675
N 0.41863257 -0.20903827 -1.04041013
C -0.25504483 0.22764408 1.03747680
C -1.38930250 -0.13773370 0.24203334
C -0.95166812 -0.40013340 -1.02421389
H 1.03368457 -0.31911005 -1.82998050
H 2.29413911 0.66542339 1.28785811
H -0.24681023 0.49768396 2.08447838
H -2.41072646 -0.19363055 0.58738892
H -1.47854447 -0.70252153 -1.91574985
