10

O -0.78527624 1.48306897 -0.74326050
C -0.23513207 1.04400112 0.50010227
C 0.61873213 -1.34884994 0.42385894
C -0.35105579 0.24948650 -1.25788427
N 0.10274872 -0.25058051 -0.10640589
H 0.73759581 -2.22478588 -0.19731709
H 0.94402160 -1.30515602 1.45376999
H -0.68305486 -0.21701919 -2.17058438
H -0.98820337 0.94958434 1.28717269
H 0.63962428 1.62025027 0.81054835
