9

O -0.28304726 -1.01231749 -0.96431458
C 2.14852559 0.83990164 1.04629368
C 1.14047791 0.08898683 0.71961485
C 0.21874084 0.20787281 -0.44451789
C -1.19510230 -0.15225597 -0.30450629
H 0.50406868 0.94040886 -1.19736083
H -1.55617271 -0.51409968 0.65532413
H 0.95929564 -0.72453344 1.43178836
H -1.93678626 0.32603641 -0.94232174
