9

O 2.5015156 -0.30952147 -0.05401587
C 1.4257271 0.22067468 -0.1347299
C 0.21022548 -0.23440586 0.6655824
C -1.0249628 -0.09590354 -0.1044772
C -2.0120893 0.038420875 -0.77714455
H 1.2552118 1.0987982 -0.7900512
H 0.16359974 0.3944503 1.5656235
H 0.37428212 -1.2649384 0.9984249
H -2.8935096 0.15242518 -1.3692124
