10

O 0.3869746 1.1560434 -0.13473108
C 0.263341 -0.8987007 1.3926615
C -0.46388802 0.942666 -1.2528169
O -0.5586186 -0.45244068 -0.9844607
C 0.24406017 -0.2028029 0.11787179
O 1.3203043 -0.9902594 0.40509155
H 0.5334117 -0.36113706 2.300266
H -1.42781 1.4514147 -1.1587241
H -0.3242274 -1.8071764 1.5192837
H 0.02645197 1.1623933 -2.204442
