10

O -1.0451463 -0.72311586 -0.022943443
C 0.3130236 -1.2241497 -0.21238099
C 0.41665903 1.020478 -0.13750282
O 0.23108172 0.8844662 1.2749308
C -0.8857726 0.61146617 0.26646653
O 1.0322735 -0.09792061 -0.72743934
H -1.8262255 1.136441 0.3561578
H 0.7049434 -1.5441284 0.75102335
H 0.2870529 -2.0110009 -0.97071415
H 0.7721102 1.947464 -0.5775979
