12

O -0.86223438 1.09299410 -0.62921611
C 1.07958898 -0.24766234 -0.83059605
C -0.17611973 0.22117456 -0.12930248
O 1.23609388 0.35406848 -2.07599801
C -0.58130980 -0.39291135 1.19231053
O -1.68478339 0.24891188 1.74816776
H -1.98796134 0.89762253 1.09428271
H 1.93067033 -0.02107432 -0.16813530
H 0.51961075 1.00137847 -2.15815071
H 1.03910071 -1.34273142 -0.93250155
H 0.27615853 -0.35197619 1.88126984
H -0.78881462 -1.45979410 1.00786906
