12

O -0.6613084 1.4906541 -0.8159388
C 0.18747881 0.41471756 -1.1325808
C 0.48069516 -0.40249687 0.12266896
O 1.0389622 0.4486199 1.0875477
C -0.7915168 -1.0106367 0.6691875
O -1.1308788 -0.8230333 1.8116795
H -0.25651222 1.9191257 -0.047756564
H 1.1411589 0.75142837 -1.5630933
H -0.3256597 -0.19886889 -1.8812157
H 1.1670661 -1.2280357 -0.13102315
H 0.52350396 0.29564014 1.8980398
H -1.3729893 -1.657114 -0.017515454
