12

O -1.5580125 -1.159024 0.8034818
C 1.0930359 0.73885965 0.4587831
C -1.3354361 -0.04482397 -0.02719981
O 0.7091586 -0.9846655 -0.9476561
C 0.14347452 0.0039187707 -0.35690835
O 2.2976646 0.3543603 0.24983919
H 2.0775797 -0.47890735 -0.35766986
H -1.8986584 -0.10870057 -0.96796876
H 0.3393441 1.1425618 -0.86126596
H -1.0895348 -1.8915462 0.3750507
H -1.6643661 0.85152346 0.512535
H 0.8857501 1.5764437 1.1189789
