12

O 1.46022625 1.05432919 0.25008799
C 0.11207908 1.20826423 -0.12319215
C -0.52990951 -0.16187740 -0.32842621
O 0.20789726 -0.85046370 -1.30238093
C -0.51285866 -0.94821579 0.96450045
O -0.01823464 -2.04902826 1.00942892
H 0.00198013 1.78822085 -1.05054200
H -0.39207145 1.75191619 0.68418643
H 1.83829676 0.44492475 -0.40153704
H -0.98561101 -0.47431651 1.84656943
H -1.58413053 -0.03983492 -0.63011156
H 0.40233631 -1.72391886 -0.91858354
