10

O -2.2672682 0.21366358 -0.58849984
C -0.95355195 0.089378506 -0.31048158
C -0.16592117 -1.0435002 -0.7493365
N 0.97338253 0.6512365 0.38208646
N -0.30513436 1.0423458 0.32489645
C 1.082421 -0.6654687 -0.11093806
H 1.5714905 1.1095023 1.0520723
H -2.5573292 1.07052 -0.24981315
H 0.5559499 -1.4130052 0.60637665
H 2.0659606 -1.0546725 -0.3563626
