10

O -0.37653506 1.642142 -1.2160307
C -0.16928624 0.6068459 -0.35499048
C 0.5148971 -0.57442 -0.53593653
N 0.40782863 -1.2377013 0.64994293
N -0.28829017 -0.5686287 1.5702457
C -0.6482693 0.5590103 0.97261655
H -0.037699446 1.4001778 -2.0855725
H 1.0492505 -0.98506415 -1.378741
H 0.78459454 -2.1412451 0.8800879
H -1.2364907 1.2988832 1.4983779
