11

C -0.7282093 0.20490679 -0.98003525
C 0.4215536 -0.22689714 1.0293835
O -1.209903 -1.0588893 -0.5443791
C 0.75838614 0.21049762 -0.969762
C -0.9570588 -0.065213755 0.4444932
N 1.8893361 0.4133836 -1.3283163
H 0.6768461 0.57819825 1.726804
H 0.6138548 -1.2137078 1.4554197
H -1.3097925 0.7521074 -1.7147636
H 1.6751791 0.090877295 -0.08773749
H -1.8301923 0.31473708 0.9688935
