10

N 0.7170434 -0.91584474 -0.4639558
C -0.6440683 0.67382187 0.33504778
O 0.74559 0.969589 0.5742953
C 1.4797374 -0.00438081 0.08006536
C -0.61326355 -0.5658715 -0.34874594
N -1.4776183 1.5440907 0.76458603
H 1.0600898 -1.7539332 -0.90935946
H -2.4200993 1.2410855 0.5418684
H -1.4023242 -1.1973085 -0.72045285
H 2.5549128 0.008751716 0.14665107
