10

N -1.3219255 -0.63842684 -1.1589875
C -1.2086474 -0.7462842 0.09285594
O -0.18025684 -0.21644074 0.7755005
C 0.7677419 0.4745806 -0.032775115
C 1.8226953 0.9804739 0.8498467
N 2.6748784 1.3987067 1.5096562
H -2.1624818 -1.1068765 -1.4896165
H -1.8772106 -1.2535304 0.79382
H 0.28844845 1.3059108 -0.55852205
H 1.1967585 -0.1981132 -0.78177774
