11

N -2.3585608 0.29694802 -0.20500273
C 1.0698218 -0.1823638 0.6030974
C -0.27753213 -0.16753681 1.0580804
C 1.0548303 0.2558317 -0.7629344
C -1.1051115 0.17976436 -0.04575674
O -0.18431976 0.38570958 -1.1683412
H 1.9629799 -0.14453197 1.2201962
H 1.8672519 0.3875102 -1.4668038
H 1.2256267 -1.1513578 -0.10427688
H -0.6577851 -0.41965714 2.0302925
H -2.5972018 0.5596836 -1.1585512
