11

N 1.9174243 0.6221918 -1.2074903
C 0.88764805 0.2648012 -0.5665119
C 0.05483306 1.1208886 0.30307022
C -0.9338835 0.3829702 0.7979268
C -0.8067239 -1.0181153 0.27742758
O 0.34964916 -0.99351716 -0.5597261
H 2.306453 -0.16078061 -1.7318958
H 0.27142745 2.167612 0.46609747
H -1.7235771 0.6981715 1.4685211
H -1.6715045 -1.3285635 -0.3202582
H -0.6517461 -1.7556587 1.0728393
