10

O 1.7820094 -0.23178895 -1.2520062
C -0.60870343 -0.25102374 1.1595428
N 0.4098483 -0.8882247 0.5704815
C -1.0053658 0.8535655 0.4069567
C 0.6324416 -0.16319044 -0.546523
N -0.2033308 0.9692151 -0.68030703
H -0.35801092 -0.16340981 -1.3517561
H -1.0460677 -0.62061405 2.0788872
H 2.2444437 -1.0208176 -0.9352401
H -1.8472645 1.5162888 0.5499643
