10

N -0.00030671 0.35872300 0.21994090
C -0.06999005 1.68101617 -0.07422155
O 0.33500553 2.29869327 1.04143988
N -0.06476790 -1.90747790 -0.22628981
C -0.37819160 -0.64593648 -0.69824078
O -0.94003417 -0.43304394 -1.74108089
H 0.29178813 3.24549381 0.86286723
H -0.19176051 -2.63581325 -0.91502486
H 0.73206799 -2.02692579 0.37861421
H 0.28618957 0.06527073 1.15199570
