10

N 1.480447 0.5017395 0.92006314
C 0.22457713 0.6242098 0.37692085
O -0.44889346 1.62857 0.44268966
N -0.22995616 -0.5483435 -0.23516035
C -1.4593617 -0.64137244 -0.8687828
O -1.8596107 -1.671507 -1.3546336
H 1.8814864 1.3764616 1.2225947
H 2.128815 -0.16818671 0.5353129
H 0.28988317 -1.4125236 -0.16274475
H -2.0073864 0.31095198 -0.87625974
