10

N -0.11378297 0.21765004 0.3416697
C 0.19849767 -0.09685191 -0.9995106
O -0.23672388 1.3179953 2.165102
N -0.1574888 -1.3962876 -1.3112788
C 0.26830414 1.3797712 0.9276137
O 0.6757816 0.68148863 -1.783661
H 0.016546134 2.1371067 2.606801
H -0.13858815 -2.1018343 -0.59227204
H 0.17864975 -1.6978229 -2.215183
H -0.6911955 -0.4412152 0.8607187
