11

N -0.65195233 -1.16277827 1.60669427
C 0.55745583 0.20133430 -1.31745208
C 0.15364653 1.39799812 -0.49611386
C -0.36199618 1.11106425 0.72833695
C -0.27207663 -0.33258096 0.64699784
O 0.22076142 -0.90371377 -0.44804108
H 1.62885843 0.13471903 -1.53744853
H 0.29098289 2.39349810 -0.91337013
H -1.01377899 -0.74863380 2.45269247
H -0.00541306 0.07194210 -2.24839684
H -0.54648808 -2.16284891 1.52610099
