11

N 1.9178072 0.62312174 -1.2079561
C 0.8879226 0.2663489 -0.5660053
C 0.05403518 1.1210294 0.3016093
C -0.934302 0.38194445 0.7976113
C -0.80533576 -1.0207918 0.27729258
O 0.35074082 -0.99216944 -0.5579275
H 2.3073335 -0.15778552 -1.7351185
H 0.26881525 2.169462 0.46360895
H -1.725479 0.69576395 1.4690398
H -1.6707397 -1.3312097 -0.31763652
H -0.65079826 -1.7557138 1.075482
