11

N 0.57344274 0.37417922 -2.05588421
C 0.24728826 0.10744254 -0.79290024
C -1.08478338 -0.29690732 -0.46806549
C -0.06388125 -0.16390743 1.78647830
C -1.16822548 -0.40193334 0.90344027
N 1.13066609 0.15405684 1.41030263
O 1.28247116 0.26876729 0.03820880
H 1.50076489 0.67174062 -2.32260909
H -0.15530238 0.21657781 -2.73481275
H -0.15267637 -0.24710332 2.86457885
H -2.10976477 -0.68291290 1.37126186
