11

N 0.96726006 0.4606895 -2.142689
C 0.5806551 0.24069798 -0.95881695
C -0.7969248 -0.11988042 -0.64370584
C -1.1519734 -0.3387991 0.6290267
C -0.12413975 -0.20760603 1.6415628
N 1.0964185 0.10366715 1.418917
O 1.4623617 0.33456668 0.10117684
H 1.9575167 0.70067066 -2.1686196
H -1.4767026 -0.19148675 -1.4842339
H -2.1632078 -0.6066364 0.9176035
H -0.3512642 -0.37588325 2.6897774
