11

N 0.39155029 0.12861173 1.07038294
C 0.56514713 -0.00775673 -0.19602604
C -1.03927528 0.00794448 1.25561205
N -1.69073696 -0.19537235 -0.03298246
C -0.73489228 -0.20787628 -0.88037373
N 1.77802472 -0.02451321 -0.83240747
H 2.55073530 0.31329390 -0.27883205
H -1.28179625 -0.83788729 1.90939552
H -1.44391061 0.90995933 1.72780102
H -0.89047696 -0.35599445 -1.94572912
H 1.79563126 0.26959089 -1.79684021
