11

N 1.0373203 0.12957639 1.7704803
C 0.37345824 0.05989609 0.540608
C -0.9714915 0.12755483 0.27220732
N -1.0541378 0.064984776 -1.1124889
C 0.20867184 -0.024769917 -1.5862767
N 1.0965943 -0.036932018 -0.61918443
H 2.010007 -0.12302601 1.6481422
H 0.6166307 -0.43338206 2.4954336
H -1.8471581 0.22658126 0.89449847
H -1.8981539 0.09099443 -1.6591812
H 0.42825928 -0.08147776 -2.6442382
