11

O 0.39154336 -0.99016 -1.064404
C -0.32333875 -0.31965238 1.0674728
C 0.10587735 0.96688914 -0.8077319
C 0.7420314 -0.09087463 -0.00080952427
O -1.4380668 -0.35525244 0.24012926
H 0.52581584 1.1608022 -1.7907425
H -0.31597933 0.5257516 1.7762976
H -0.59755266 -1.1128261 -0.779838
H 1.815083 -0.09081144 0.19318563
H -0.7379851 1.5570554 -0.47210908
H -0.16742823 -1.2509215 1.6385498
