11

O -1.1210014 1.2501693 -0.48694462
C -0.6139631 0.73172367 0.7189298
C 0.46327218 -0.2981719 0.4528188
C 0.42603093 -1.1368148 -0.74174696
O 1.2804546 0.007587811 -0.67094976
H -0.34556246 1.4285287 -1.0377868
H -0.19451791 1.5254635 1.3572829
H -1.4462005 0.2711968 1.2597618
H 1.0129775 -0.6516715 1.3265779
H -0.40895393 -1.0348798 -1.430839
H 0.9474643 -2.0931315 -0.7471041
