11

O -1.2521679 1.3628215 0.85603434
C 1.1550475 -1.2666594 -0.28228202
C -0.5809853 0.12918352 0.9979295
C -0.053183094 -0.4127244 -0.30692652
O 1.042182 0.41781965 -0.8106379
H -1.3200576 -0.5814392 1.3845162
H 0.25707883 0.17702866 1.708281
H 1.0291153 0.430009 -1.7783929
H 1.1708667 -1.7887655 -1.2621204
H -0.8427732 -0.48248893 -1.0676718
H -0.6051231 2.0152152 0.5612701
