11

O -0.90252054 -0.9483932 0.59529334
C -0.09025716 0.25159305 0.708145
C -0.019242601 0.91584367 -0.65394044
C 0.8051764 -0.8640785 1.0775421
O 0.3304225 0.017717618 -1.67909
H 1.3118461 -1.2134674 0.1678139
H 0.75499105 1.6896194 -0.6261716
H -0.44268158 0.92374265 1.4935001
H -0.30761802 -0.7064625 -1.6477387
H -0.9810595 1.413187 -0.85977954
H -0.4590568 -1.4793019 1.4244258
