11

N 1.9190423 -1.3938084 0.9096727
C 0.94525003 -0.8340651 0.34128675
N -1.0538131 -0.5166324 -0.7273206
N -1.0936335 1.8423891 -0.5190421
C -0.5772095 0.5961442 -0.31859073
N -0.033686418 -1.4153894 -0.42116508
O 0.61973184 0.52066433 0.32026342
H -0.9337288 2.4962132 0.23246771
H -0.25510436 -2.3932424 -0.3488996
H -2.0400527 1.8197385 -0.86514306
H 2.5032046 -0.72201204 1.3964704
