11

N 1.8247366 -0.28651187 -0.8775776
C -2.2955797 1.0448976 1.2949097
C 0.58840716 -0.30483446 -0.20287229
N 0.08396981 -1.436843 0.22064261
C -0.12787344 0.9314787 0.048452348
N -1.2767997 0.9944003 0.6016634
N -0.34257606 -2.434076 0.5764918
H 0.36334768 1.8452604 -0.26540694
H 1.8055466 -0.7511883 -1.7779576
H -3.222611 1.0200388 0.7019209
H 2.599432 -0.6226221 -0.3202666
