11

N 0.4055783 -1.9609348 -0.5129167
C 0.61595345 0.13863316 0.8991341
C -0.038473457 -0.7169652 -0.064044416
N 0.43534333 1.4174235 0.7507145
C -0.26363835 2.367892 0.37378713
N -1.1517701 -0.12859721 -0.50027
N -1.9152032 0.70493174 -0.66477764
H 1.17842 -0.23954666 1.7437164
H -0.21958637 -2.7300637 -0.31578246
H 0.7268102 -1.9856275 -1.4733027
H 0.22656633 3.132855 -0.2362582
