9

N -0.8869483 -0.5764562 -1.2242656
C 0.23483364 -0.14795108 -0.55274516
C -0.052882735 0.3721711 0.78873277
N 0.95939934 0.8036863 1.4849538
N 1.8376806 1.1739843 2.0858526
O 1.3495886 -0.15985906 -1.0400633
H -0.7033495 -1.0929255 -2.072824
H -1.7078431 -0.843738 -0.70650035
H -1.0304786 0.47108817 1.2368598
