10

O 0.7588069 0.70368147 -1.8577279
C 0.2154867 0.23288088 -0.72693515
C -0.118421204 -0.74214137 1.2068272
C 0.8172467 -0.6311323 0.18785118
N -1.2583188 -0.090559855 0.9182222
N -1.031864 0.55500764 -0.36244836
H 1.7901547 -1.0962652 0.10720537
H -0.036278475 -1.2851403 2.1383488
H -1.2168523 1.1343049 0.7040016
H 0.08004 1.219364 -2.3153448
