10

O -0.7945273 -1.7349733 -0.74356157
C -0.29868624 -0.58750343 -0.23432817
C 0.86432934 0.124964364 -0.4212003
C 0.7101929 1.2362744 0.44335887
N -0.43331847 1.2130792 1.1001427
N -1.0391903 0.08435268 0.67001134
H -0.15675738 -2.0988429 -1.3691912
H 1.690323 -0.11467686 -1.0751216
H 1.4024668 2.051743 0.6032591
H -1.9448324 -0.17441714 1.0266309
