10

O 1.1699747 0.18987444 0.358978
C 0.11517429 0.14659764 -0.5359496
C -0.8428391 -0.3176909 0.52042514
O -2.0031705 -0.60665935 0.5915772
C 0.0891638 0.437568 -1.831192
C 0.3547615 -0.2526414 1.47667
H 0.976678 0.7638602 -2.360845
H 0.6945978 -1.210877 1.8822538
H 0.29270765 0.50145084 2.2676768
H -0.8470484 0.34851742 -2.3695943
