12

O -1.32623920 1.07207626 0.62112244
C 0.57091426 0.38881658 -2.06882073
C 0.16524978 -0.78520432 0.12669947
C -0.43579092 0.13464665 1.18532054
N 0.91306109 0.00646635 -0.85918894
H -0.40957783 -0.09726824 -2.26542977
H -0.84069318 1.57111777 -0.04816088
H 1.79308072 0.36301436 -0.50006940
H 0.37769592 0.63422838 1.73760853
H -0.62897804 -1.30579577 -0.41575868
H -1.01232978 -0.45803306 1.90354456
H 0.83360721 -1.52406481 0.58313305
