12

O -0.54453623 0.6184864 -1.6977395
C 0.18863009 1.1725996 -0.6326091
C 0.36378226 0.16159278 0.48674434
C -0.7148264 -0.78856635 0.8334743
N 0.422997 -1.2222848 0.018990496
H -0.23218285 -0.29783282 -1.7653167
H -0.36182985 2.048781 -0.27152476
H 1.1828241 1.5132982 -0.96366566
H 1.0465441 0.45389774 1.2827944
H -1.6576405 -0.7368527 0.29941303
H -0.777437 -1.144097 1.860603
H 1.0836753 -1.7790219 0.54883635
