10

N -1.2281355 -0.7070926 -0.29627672
C -0.6310226 -0.005564497 0.6977138
O -1.1255853 0.20607063 1.7847719
C 0.7659909 0.55784005 0.38162768
C 1.3041013 0.19215156 -0.9268257
N 1.6857786 -0.12204587 -1.9702216
H -2.140743 -1.0984389 -0.11719037
H -0.78384346 -0.8848928 -1.1835948
H 0.70834816 1.646947 0.46205077
H 1.445111 0.21502553 1.167945
