10

N 0.55831933 -0.18747452 -0.8518679
C 0.05632456 -0.573848 0.36082697
O 0.36103228 -1.8124169 0.80414945
C 0.111433215 1.0895286 -1.068837
C -0.67301154 0.48023105 0.8303321
N -0.62629765 1.5164428 -0.08300681
H 1.1385648 -0.75934225 -1.442003
H -1.2224456 0.557789 1.757879
H -0.06699956 -1.9531165 1.6558249
H 0.36308023 1.6422069 -1.9632976
