10

N -0.170624 1.1058223 -0.05265042
C 0.26336858 0.060232628 -0.79255474
O 1.1123614 0.0047841854 -1.7555925
C -0.60986155 0.53015685 1.1616876
C 0.0021898246 -1.1324308 -0.07021857
N -0.5215431 -0.74795604 1.1985077
H -0.4050693 -2.0145736 -0.55345416
H 1.2297846 -1.0406156 -0.89106214
H -0.9794065 1.1634526 1.9598926
H 0.07879997 2.0711274 -0.20455565
