11

N -0.41394627 -0.55465794 -1.4661828
C 0.19519962 -1.2935534 -0.64080364
O 0.77136594 -0.81641036 0.4733513
C 0.6966323 0.59584045 0.63266677
C -0.7302919 1.08141 0.80197847
O -1.0269496 2.2443316 0.7087752
H -0.78821224 -1.1019822 -2.234597
H 0.3439941 -2.375462 -0.6906232
H 1.1557075 1.1160477 -0.21144508
H 1.2582631 0.80948573 1.5476035
H -1.4617624 0.29494995 1.0792763
