11

N 0.7980115 -0.7301076 0.67221946
C 0.27379125 0.7119341 0.78095603
O -0.85277253 -0.50052315 -0.8946762
C -0.06998417 -1.2922261 -0.18044432
C -0.47175926 0.86071223 -0.5815457
O -0.45836142 0.45149747 1.7995552
H 0.15505803 1.2343372 -1.398811
H -1.3903754 1.4371603 -0.47624096
H -0.3478427 -2.3466372 -0.1751051
H 1.126239 1.4168979 0.8574948
H 1.2379956 -1.2430446 -0.40340215
