11

C 0.05605466 0.52762077 1.58048001
C -0.15085266 0.27798248 0.06743788
C 1.05288106 -0.17672791 -0.42537701
O 0.05084366 1.57502592 0.62155506
C -1.47969894 -0.15362643 -0.48188886
N 2.08719469 -0.50597695 -0.96732890
H -2.24899379 0.23603386 0.18613374
H 1.10632874 0.39495736 1.92783274
H -1.63723929 0.23739687 -1.49036103
H -1.54934798 -1.24452330 -0.50129141
H 2.71283003 -1.16816275 -0.51719215
