11

C -1.0690393 -0.6737079 -0.92119473
C -0.26711446 0.18153463 0.016544743
C -0.62516135 0.29026318 1.518013
O -0.80342984 1.3631568 0.6049186
C 1.1005636 0.32255393 -0.07386106
N 2.2832134 0.5150686 -0.26412144
H 2.9749024 0.10928795 0.35993072
H -2.085516 -0.7210731 -0.52821183
H 0.23504473 0.54905057 2.1771061
H -1.0846156 -0.24976894 -1.9285514
H -0.65884817 -1.6863658 -0.9605728
