10

O -1.7649937 1.2961211 0.8335086
C 1.6847111 -1.6634145 -0.7523105
C -0.12288625 0.19619814 -0.31484994
O -0.4462637 1.0743628 -1.2076559
C 0.8754439 -0.7934247 -0.56022966
C -0.86515695 0.39804798 0.9270666
H 2.4075367 -2.430544 -0.9269422
H -1.229336 1.5216596 -0.7045201
H -0.86205727 -0.4192886 1.6641704
H 0.3230024 0.8202822 1.0417624
