10

O 0.23715873 1.81215056 1.29120837
C 0.13306717 1.33790834 0.18865588
C -0.65419305 0.04974891 -0.03700579
O -1.28638994 -0.34366188 1.14025432
C 0.30402348 -0.94250311 -0.56453081
C 1.12116991 -1.71262339 -0.99278922
H -0.88935709 0.18369104 1.85319449
H 0.61175237 1.78761261 -0.69951560
H -1.41206020 0.24162017 -0.81250875
H 1.83482870 -2.41394318 -1.36696301
