9

O -1.1535194 -1.2862649 -1.0822998
C -0.37961385 -0.47194225 -0.34601718
C 0.4762823 -0.79053766 0.6535167
O 1.0303086 0.39346373 1.0853314
C 0.47001994 1.3306575 0.31820443
N -0.37796474 0.88840085 -0.55382246
H -1.628976 -0.7253085 -1.7102637
H 0.7944744 -1.6928743 1.1459247
H 0.7689892 2.3544056 0.48942575
