10

O 1.6605624 -0.13045159 -1.4497334
C 1.1614809 0.7915302 -0.84518063
N 0.27791104 0.64927226 0.18826652
C -0.21402308 -0.65848404 0.5743141
C -1.6499591 -0.8169421 0.28302875
N -2.7808137 -0.92352957 0.07732731
H 1.3832347 1.8514365 -1.0586296
H -0.14706242 1.472653 0.5869284
H 0.35931247 -1.3910123 0.0022330252
H -0.05064315 -0.84447235 1.6414454
