10

N -1.5402795 -1.4227053 0.7483211
C -0.6804639 -0.64187527 0.26532036
C 0.1437143 0.33186862 1.010177
C 0.9259128 0.96502835 0.13788371
C 0.63911647 0.42194137 -1.2164841
O 1.1050013 0.6967443 -2.2790978
O -0.343886 -0.54802704 -1.0708113
H -1.9714352 -1.9924512 0.022341574
H 0.06209219 0.4473898 2.082268
H 1.6602277 1.7420864 0.30008122
