11

C -1.3078469 -0.7885227 0.680478
N -0.1261994 -0.053021178 0.26690286
C 0.3972493 0.10060008 -0.9712484
C 1.4880766 0.9047605 -0.77000666
N 1.5701728 1.193171 0.55471337
N 0.59464175 0.6146047 1.175153
H -1.3665327 -0.70794743 1.7665905
H -2.2030313 -0.3526413 0.23121715
H -1.2216401 -1.8388319 0.39499345
H -0.032097764 -0.35823444 -1.8492111
H 2.207208 1.2860625 -1.479582
