10

N -1.0484817 0.2618968 0.36359054
C -0.66017747 -0.9676068 -0.09935071
C 0.6687477 -0.88565165 -0.4401553
C 1.0941923 0.44519177 -0.17144631
C 0.011226105 1.1296147 0.32381216
H -1.9740077 0.49448392 0.68227893
H -1.3582681 -1.7903873 -0.14531143
H 1.27473 -1.6874086 -0.8374426
H 2.0860593 0.84579515 -0.32622883
H -0.09402034 2.1540716 0.6502536
