10

N -0.49373285 -0.66308251 -0.51676965
C -1.04095444 0.28327826 0.22796673
C 0.97345049 -0.50964244 -0.40701872
C 1.23453986 0.65757352 0.49766478
C -0.05546619 1.07938895 0.83899801
H -0.30104691 1.91184017 1.49247920
H -1.01023592 -1.35384155 -1.03656724
H 1.40992090 -1.42814438 0.00010536
H 1.40578774 -0.33957814 -1.39914733
H -2.12226258 0.36220772 0.30228892
