10

O -0.56693375 -1.8798323 -0.78597623
C 0.21031387 -0.98972404 -0.04506002
C -0.3160168 0.42053705 -0.14716353
O -1.292795 0.69311446 -0.8123592
C 0.40475315 1.5251098 0.6089014
O 1.3811651 1.3147509 1.2788849
H -1.2606217 -1.3556018 -1.2089707
H 0.23585434 -1.2690747 1.0184643
H 1.2572234 -0.98694175 -0.38899875
H -0.052942872 2.5276628 0.48227802
