10

N 0.8494119 -1.4372389 0.01404509
C 1.0365466 -2.5831468 -0.13869035
C 0.6222423 -0.06430867 0.19156319
C -0.73698276 0.39770132 0.63451105
C -0.28047168 0.6520022 -0.7722258
H -0.7239094 0.055533603 -1.5624826
H 1.4942136 0.46235663 0.56858283
H -1.4889216 -0.36938727 0.7910347
H -0.7748891 1.2265136 1.33475
H 0.002760221 1.6599749 -1.0610882
