10

N 1.20673242 -1.12207476 -0.26851224
C -0.72798635 0.42375804 -0.62495501
C 0.63564685 0.14236106 -0.06085995
C -0.54786160 0.26522873 0.85639687
C 1.67958512 -2.17880657 -0.44509263
H -1.21048681 -0.38453531 -1.16418851
H -0.91040339 -0.64960684 1.31462816
H -0.59415698 1.14521943 1.49056907
H -0.90090530 1.41559610 -1.03241920
H 1.36983602 0.94285979 -0.06556626
