10

N 0.90507805 1.9239831 -1.8451914
C 0.35348442 1.0769542 -1.2843596
C -0.32708994 0.021548381 -0.57373327
C -0.48275423 0.121463574 0.92771924
C 0.46446154 -0.87692606 0.34965217
H -1.1439854 -0.43059984 -1.1280143
H -1.4222184 -0.22654319 1.3437696
H -0.06719112 0.9990443 1.411759
H 0.19179185 -1.9266737 0.3611335
H 1.5284232 -0.6822511 0.43726537
