10

O 1.7094284 -1.7775145 0.83289886
C 1.1523157 -1.4698507 -0.19252661
C 0.19666032 -0.33929896 -0.2630163
N -0.3900008 -0.04049891 -1.3947246
O -1.1908805 1.0335472 -1.1233752
C -1.0673846 1.360616 0.17556223
C -0.19899955 0.5303035 0.7940782
H 1.3152703 -2.0051873 -1.1465752
H -1.6618664 2.2047362 0.4986249
H 0.13545698 0.5031475 1.8190538
