10

N -0.14571305 0.14309067 1.4782398
C -0.64209807 0.24165912 0.101655155
C 0.25339326 0.6673756 -0.95478904
C -0.43251586 -1.0820059 0.75263673
C 1.003395 1.0396212 -1.8182627
H 1.666898 1.3671339 -2.5895078
H -1.6577417 0.6241473 0.029298242
H 0.8536211 0.32552344 1.5041479
H -1.2960465 -1.6417905 1.1041673
H 0.3968076 -1.6847548 0.39241454
