9

O -1.9671786 0.42398384 0.07787395
C -0.6574589 0.13228555 0.032034803
N -0.11008835 -0.8956953 0.6556581
N 1.1746439 -0.7819528 0.32835913
N 1.4983547 0.22747694 -0.4497224
C 0.33878076 0.8428009 -0.6632582
H -2.4003103 -0.23812349 0.63310874
H 1.8625523 -1.4382578 0.6612498
H 0.26070443 1.7274822 -1.275304
