9

N -0.11984448 -0.8475592 0.4506368
C 0.35901344 0.37665686 0.85913956
C 0.27595752 1.1770692 -0.24506359
N -0.2372103 0.4824611 -1.3111335
C -0.4630556 -0.7262941 -0.8606514
H -0.2012452 -1.6774428 1.0135628
H 0.70102787 0.54751563 1.8690193
H 0.55556726 2.2177887 -0.34345275
H -0.87021047 -1.5501958 -1.4320575
