9

N -0.07747561 -1.25436416 0.19903537
C 0.20641247 -0.02338659 0.91560104
C 0.07048698 1.03453793 -0.13742611
N -0.23760726 0.52211456 -1.27277552
C -0.31305121 -0.87548172 -0.99947756
H -0.50038622 0.11145429 1.74255479
H 1.21129356 -0.05810759 1.35393425
H 0.20482253 2.10266875 0.00220654
H -0.56449521 -1.55943590 -1.80365308
