12

O 0.40378916 1.1712452 -2.1703296
C 0.75569165 1.2880373 -0.8145946
C 0.21046688 0.17001677 0.019560378
N -0.7523831 -0.6099806 -0.42958254
N -0.9828484 -1.4175047 0.6262135
C -0.16469279 -1.0930891 1.6433853
N 0.6068571 -0.085221246 1.2980415
H -0.48750353 0.8013206 -2.206221
H 0.40645066 2.2386513 -0.38011345
H 1.8492715 1.2892348 -0.74855196
H -1.677325 -2.1443734 0.56854314
H -0.1677742 -1.6083366 2.5936491
