12

O 1.8659054 -1.4883715 -0.1859623
C 1.2665527 -0.6394627 0.7555506
C -1.5533309 1.3785744 -0.04092179
N -0.5604969 -0.38195226 -0.89225703
N -0.5535887 1.1026747 0.78984386
C 0.061223473 0.06511025 0.20459889
N -1.6820899 0.5218112 -1.0621178
H 1.1823591 -2.0686657 -0.54072845
H -0.75471914 0.3765191 -1.846707
H 0.96090233 -1.1740184 1.6690183
H 2.009817 0.10547507 1.0518928
H -2.2425346 2.2023056 0.09778967
