10

C 0.38614815 2.0515113 1.5008296
C 0.18266778 1.0901395 0.8059798
C -0.058744866 -0.043009344 -0.019307029
C -1.2059779 -0.72071767 -0.37361458
N -0.86914074 -1.7394807 -1.2020606
N 0.41523668 -1.7361169 -1.383954
N 0.9134749 -0.7243537 -0.6779383
H 0.5584828 2.9055538 2.120049
H -2.2286565 -0.53242844 -0.08354232
H 1.9065095 -0.5510976 -0.68644136
