9

O -1.5095621 -0.7312108 -0.21330349
C 1.8690772 -0.5871237 -0.9687856
N 0.7377398 -0.2576802 -0.5488745
N -0.28192613 0.5351186 2.3279693
C -0.35627136 -0.10371454 0.055250216
N -0.47201052 0.8372142 1.1674026
H -0.7483685 1.7917006 0.8662903
H -1.3546543 -1.4772979 -0.8074903
H 2.115976 -0.0070061875 -1.8784583
