9

O 0.24953048 -0.61356306 -1.584378
C 0.5599837 -0.91981846 1.894342
N -0.3897788 1.3431107 -0.4965954
N 0.20870478 -0.55217236 0.7398265
C 0.06774421 -0.04068976 -0.39833596
N -0.58664095 1.9502931 -1.5276289
H 0.68159664 -1.4704942 -1.4693041
H -0.5016638 1.7379555 0.4599756
H -0.28947613 -1.4346213 2.3820982
