12

C -0.4935323 -0.071428955 -1.326805
C 0.9594603 0.86964095 0.2265614
N 0.72820204 0.37718114 -1.0352916
C -0.71873516 -0.71463126 1.1758502
O -1.3716224 0.0355055 -0.41476348
H 1.499048 0.12382514 -1.6386214
H 0.24189723 1.6073157 0.56666315
H 0.08888793 -1.4311063 1.0517333
H -1.6953857 -1.194182 1.1775601
H -0.58456707 -0.049271926 2.0216558
H 2.004983 1.0426342 0.4636613
H -0.6586359 -0.59548193 -2.2682037
