12

N -0.4462447 -0.025375115 0.3325549
C -0.6528213 -1.4796214 0.51446915
O 0.853192 -0.2919525 -1.5686736
N 0.33562514 1.8232833 -0.81958604
C 0.25762847 -0.8783298 1.522833
C 0.31593674 0.451555 -0.78360033
H 0.2593155 2.3266191 0.051184155
H -1.6803533 -1.7015722 0.8083849
H -0.32460615 -2.0391777 -0.3620614
H 0.96883935 2.2142 -1.5031117
H 1.2812773 -0.99838537 1.1348017
H -1.167789 0.5987564 0.67280537
