12

N -0.43381629 -0.32470770 -0.12938043
C -0.99376263 -0.49872170 1.38584573
O 1.76801052 0.38390022 0.02586965
N 0.26186505 1.58552508 -1.23542081
C 0.65792992 0.55864003 -0.41568863
C -0.20258625 -1.54077769 0.68197978
H -0.72952119 -2.40187506 0.26686350
H -0.27594161 0.10864365 1.95915095
H -0.69794259 1.89225758 -1.18964630
H 0.95348117 2.31168441 -1.35928849
H -1.17012779 -0.35542426 -0.82424629
H 0.86241196 -1.71914435 0.83396134
