12

N 1.8485855 -0.5141599 -0.66796273
C -1.0874711 -0.29765278 1.3727739
O -0.21198647 -0.66721886 -1.649963
N 0.06161394 0.5529773 0.31519526
C 0.51094735 -0.26760468 -0.7663831
C -1.3749175 0.8025012 0.41780907
H -1.218158 -1.2492839 0.8370444
H 0.26104397 0.19509315 1.3751928
H -1.6027324 1.7970665 0.79890746
H -1.8878458 0.5547343 -0.5082076
H 2.2805762 -0.9725358 -1.4522253
H 2.4203444 0.06608348 -0.0721809
