10

C 0.19475834 -0.76889396 0.26931995
O -0.20491032 -0.39604077 -1.0368024
C -1.1652539 0.5481937 -1.0816028
O 1.5462747 1.2201132 0.28182998
C 1.1711533 0.2300807 0.85220826
O -1.7229662 1.0209104 -0.12995782
H 1.5349742 -0.03855845 1.8668
H -1.3701447 0.79216295 -2.1330588
H -0.6719784 -0.8663081 0.9319493
H 0.6880928 -1.7416595 0.17931424
