10

C -0.32978237 0.84549016 -0.40531802
O 0.7874692 -0.8207814 1.1689408
C -0.44376376 -0.7583018 1.2676954
O -0.4195577 2.0091045 -0.058010127
C 0.8034239 0.019827861 -0.75941545
O -1.2221292 -0.15501589 0.41909546
H -0.57471055 0.57294345 -1.5916862
H 1.7425044 0.50304854 -1.0130974
H -0.96263194 -1.2374114 2.1064115
H 0.619178 -0.97890425 -1.1346158
