9

N 0.7701901 -1.0784146 -0.49413973
C -1.0985107 1.5899354 1.2224354
O 1.0544409 -0.82639086 1.756142
C -0.40422645 0.64690113 0.6883225
C 0.5529566 -0.5005845 0.70714664
C -1.1211388 1.3066866 -0.46544227
N -1.4626763 1.5231528 -1.5580435
H 0.3086175 -0.79270786 -1.3421191
H 1.4003476 -1.8685781 -0.5143019
