10

O -0.8632451 -0.8158939 -1.355108
C -0.8504029 0.31986558 0.5799717
C 0.51526105 0.7613258 0.6282565
C 0.3309057 -0.9674232 -1.0545105
N 0.9420504 -0.5353307 0.040801458
H 0.96182525 0.8397713 1.6209801
H 0.75659806 1.6255215 0.0050049964
H -1.6035994 0.77375305 -0.04878089
H 0.98156035 -1.5666963 -1.706589
H -1.1709532 -0.43489316 1.2899735
