12

C -1.15649856 -0.20815809 -1.92555183
N -1.04877392 -0.15517792 -0.66620211
C 0.21848207 -0.59535174 -0.09723974
N 0.84652797 0.44245925 0.68262479
C 0.54352050 0.66250434 1.99825031
O 0.89376543 1.63473698 2.62855165
H -2.09136076 0.10033337 -2.39308697
H -0.35507533 -0.56082147 -2.59139078
H 0.00534760 -1.43051715 0.58106831
H 0.93207082 -0.95377751 -0.85580444
H -0.04067298 -0.16521644 2.44452331
H 1.25266699 1.22898647 0.19425749
