12

C -0.44918078 0.41814974 2.0858376
N 0.3994248 0.43846327 1.0131961
C 0.34144235 -0.54146165 -0.04324471
N -0.6383519 -0.18486463 -1.0612087
C -0.21012028 -0.061216664 -2.2451437
O -0.56692785 1.3210677 2.8833728
H -1.0069778 -0.53447497 2.169096
H 1.354262 -0.6885405 -0.45026132
H 0.022112345 -1.4892607 0.40701598
H 0.8423424 -0.20545538 -2.5306427
H -0.91046923 0.19312008 -3.0404723
H 0.82244414 1.3344736 0.8124557
