12

C -1.122197 -1.0146252 -1.6997596
N -0.99880826 -0.5860588 -0.32263422
C 0.058336418 0.021054007 0.008528621
N 0.24403685 0.46993133 1.3096086
C 1.3528018 1.1496022 1.7470828
O 1.502699 1.542956 2.8786361
H -1.9993486 -0.5329953 -2.1467948
H -0.24363561 -0.7899288 -2.3215084
H -1.3039981 -2.0933151 -1.7238783
H 0.89881396 0.24699801 -0.66051626
H -0.49248463 0.28616434 1.9823785
H 2.103784 1.3002174 0.94885695
