10

O 1.2504725 -1.3865994 0.99110657
C 0.35876822 -0.9495069 0.016115598
C -0.018906983 0.49954793 0.22014096
O 0.420514 1.1479698 1.1440507
C -0.98053217 1.1526535 -0.7595261
O -1.4491885 0.5588762 -1.6943053
H 1.4053665 -0.6403641 1.5872229
H 0.7849034 -1.0521867 -0.9939995
H -0.5676155 -1.5441498 0.017531427
H -1.2037815 2.2137592 -0.5283373
