10

O -0.8979326 1.6846226 0.89955807
C -0.32944387 1.2275004 -0.19138105
C -0.107671715 -1.5864443 -0.79411626
O 0.93227935 -0.75167865 -0.68844795
C 0.7435266 0.27563134 0.28613147
O -1.1055254 -1.5459435 -0.12790446
H -1.5564073 2.341506 0.6230159
H 0.5424567 -0.1532841 1.2746472
H 1.6866312 0.8326762 0.30054402
H 0.09208699 -2.3245862 -1.582047
