10

O 0.53681383 -1.22173911 -0.35680619
C -0.74512242 -1.59216396 -0.26234686
C 0.80869227 0.05084464 0.23260978
O -0.14116523 2.08862297 0.26677217
C 0.14532735 1.13408016 -0.58707695
O -1.61141814 -0.97292126 0.29196412
H 0.52232595 0.06259268 1.29063493
H 1.89101784 0.18683645 0.13245705
H -0.88657401 -2.55814874 -0.76479756
H -0.51989746 2.82199588 -0.24341053
