11

N -1.3052534 -1.2775706 1.274414
C 0.4314018 -0.9770866 -0.48366994
C -0.29574737 0.86257505 0.60871416
N 1.0650885 -0.06345431 -1.1212695
N 0.5782628 1.1884106 -0.5188701
C -0.5111887 -0.5233876 0.5832085
H -0.924872 1.6545753 0.9752809
H 0.59982526 -2.0165265 -0.75351125
H 1.4198602 1.7146647 -0.27651885
H -1.1859452 -2.2533934 1.007333
H 0.12856777 1.6911933 -1.295111
