17

C -2.4809988 -0.92586833 0.59592587
N -1.3233241 -0.4243494 -0.12014457
C -0.26502705 0.06906046 0.62351155
O -0.3486841 0.21486981 1.8360823
N 0.856657 0.42280713 -0.09296231
C 2.0666928 0.7614591 0.6262406
C 0.93464077 0.3487616 -1.5376688
H -2.266101 -1.8314499 1.1795086
H -2.8361585 -0.15964282 1.2886852
H -3.2742736 -1.1423049 -0.12319158
H -1.0865418 -0.9341834 -0.95700467
H 2.8538027 0.011227121 0.46187198
H 1.8326043 0.80449677 1.6892424
H 2.4483304 1.7366978 0.30133402
H -0.01989443 0.6423529 -1.9845475
H 1.693479 1.0566614 -1.8853285
H 1.214796 -0.6505951 -1.9015546
