17

C -0.38367102 -0.49248508 0.59745395
N -0.8549838 0.7842767 0.99412084
C 1.2430485 0.7302876 -0.8337782
O -0.9328166 -1.4942652 1.0044355
N 0.6836836 -0.4790187 -0.256299
C -2.57414 1.1740391 0.83886075
C 1.3394724 -1.7361388 -0.57597786
H 1.3501656 -1.8942537 -1.6587389
H -2.914301 0.19982716 0.48097923
H -1.5336841 0.9000718 1.8427454
H 1.9832419 1.2053361 -0.17314696
H 1.7428334 0.4706994 -1.7709916
H -0.23586802 1.5773841 0.88991696
H 0.78049153 -2.54027 -0.0982635
H 0.45616248 1.4524775 -1.0755132
H 2.3713367 -1.7334695 -0.20466226
H -2.520971 1.8755018 -0.0011414211
