12

N 0.20247840 -0.55360611 1.01330324
C -0.00841730 -1.09159127 -0.36141286
C -0.54443550 0.19279370 -0.07984858
N -1.79121874 0.78356962 -0.12460212
C 0.68715952 0.10340397 -0.96384600
N 1.88752761 0.40592696 -0.19260746
C 1.53556205 -0.00379509 0.95482212
H -2.53439610 0.17495312 0.19503269
H 2.13519688 0.04353885 1.85924368
H -1.82639797 1.67019677 0.36610616
H 0.64621798 0.33963169 -2.02198908
H -0.38927686 -2.06502212 -0.64420160
