12

N 1.8660855 0.4717842 0.24449828
C 1.4425775 -0.46623275 0.985519
C -0.5468872 0.19970818 -0.031404458
N -1.821313 0.7160183 0.09004618
C 0.76083213 0.5852455 -0.7003584
N 0.14888915 -0.9872374 0.6143737
C 0.09573232 -0.75916815 -0.85834765
H -1.9581563 1.2324394 0.95186
H -0.1934545 -1.4609175 -1.6306882
H -2.5477314 0.019836066 -0.02193434
H 0.79747117 1.3234085 -1.4946628
H 1.9559547 -0.8748845 1.8510988
