12

N 1.392713 -0.5235307 0.62822264
C -0.04597571 -0.73583037 0.6969127
C -0.49487323 0.7709332 0.5417177
N -0.9714187 -0.66400135 -1.6691772
C -0.35755292 -0.263367 -0.58141387
N 0.55279917 1.5993874 0.9094119
C 1.5904937 0.7761683 0.86484826
H -1.0771111 -1.646775 -1.8900557
H 2.6074524 1.1474059 0.984039
H -0.46391785 -1.5707366 1.2618315
H -1.5254897 1.1135067 0.65264916
H -1.2071192 -0.0031603854 -2.398986
