9

O -1.19464095 -0.15879037 -1.80205389
C -1.30851112 0.11279842 -0.63597255
N 1.20598905 0.17422066 -0.32181936
C -0.14921094 0.28495022 0.29916662
C 0.87110064 -0.77244004 0.56137865
O 1.22585145 -1.73947845 1.16424238
H -0.30377597 0.99645678 1.11058600
H -2.29815929 0.25427983 -0.15454137
H 1.95135719 0.84800294 -0.22098643
