9

O -1.329262 -0.6052249 -0.82299006
C 0.37501594 -0.07877269 1.2816681
C 0.73254764 0.20520422 -0.26761088
O 1.0652438 -0.8202343 -0.96353126
C -0.74571633 0.39880365 -0.30459782
N 0.30472037 -0.34353828 2.408964
H -0.45274845 -1.1360575 -1.139467
H -1.3091503 1.2694777 0.017416684
H 1.3593494 1.110342 -0.20985156
