11

O -0.1565174 0.19130677 -2.400145
C -0.31784496 -0.25696686 1.1472428
N 1.0703768 0.49211985 -0.47161758
C -1.0396163 -0.40938 -0.16488032
C 0.8848987 0.2660321 0.90419585
C -0.036751702 0.112674996 -1.1984168
H 1.8970394 0.87951565 -0.8969646
H -0.71465987 -0.5258913 2.1145618
H 1.6796843 0.51826376 1.5946648
H -1.96206 0.17756152 -0.2250696
H -1.3045491 -1.4452364 -0.40357104
