12

N -0.49623363 -1.13186741 -0.99177426
C -0.17282623 -0.04373436 -1.59038597
N -1.15465193 -0.77059947 1.33601400
C -0.20944145 -0.50159496 0.33468987
C 1.53877658 0.40693193 0.16786100
C 0.20510758 0.82605926 -0.40918131
N 1.20513934 -0.68607664 0.75484781
H -0.17656080 0.12942787 -2.66393613
H -2.10698330 -0.62148921 1.02619075
H -0.96852451 -0.26807617 2.19599781
H 2.53842951 0.83028115 0.11305510
H -0.20223130 1.83073805 -0.27337825
