12

N -0.9907597 -0.93523073 -0.8091518
C 1.5799824 -0.24609944 0.06851957
N 0.8819623 -1.0273585 0.8121171
C -0.36631015 -0.32764825 0.40736228
C 0.487499 0.6138734 -0.5266655
C -0.30497915 -0.15553355 -1.5632998
N -1.2543515 -0.06370553 1.4610003
H 0.53384405 1.7054714 -0.5230801
H -0.32601053 -0.123861216 -2.6500673
H -0.8113536 0.41498247 2.2364717
H -2.0868464 0.42669645 1.1583165
H 2.6573231 -0.28158653 -0.07152292
