12

N -1.5240395 -1.1007609 -1.3432295
C -0.6188416 -0.45186043 -0.5508909
N -0.6898605 -0.6979751 0.76526797
C 0.22138126 -0.09005563 1.5160505
C 1.1944035 0.7571905 0.9954917
C 1.1552314 0.9378438 -0.38233078
N 0.26192263 0.35018307 -1.1695579
H -1.6482489 -0.74914026 -2.2793088
H -2.3216486 -1.505611 -0.88006896
H 0.16637418 -0.2860226 2.584724
H 1.9303466 1.2454058 1.6222669
H 1.8729794 1.5908028 -0.8784138
