9

O 0.18360399 -0.76080823 1.98984711
C 1.45285496 1.66522485 -3.16535872
C 0.37950392 0.50386840 -1.21718269
C -0.13234015 -0.05306854 -0.28709144
C -0.71006749 -0.69620046 0.90204576
N 0.94676397 1.11926391 -2.24932379
H -1.64340268 -0.17632873 1.16810831
H 0.49251812 0.13083715 2.18940300
H -0.96943473 -1.73278823 0.66955252
