11

C 0.93732285 1.0910864 -0.76868385
N 0.08738348 0.13759969 -0.08729459
C 0.37891123 -1.0693041 0.4240899
N -0.6974204 -1.6141557 0.96001536
C -1.6387635 -0.6642221 0.73730856
N -1.2173193 0.41318908 0.10811829
H 0.5759972 1.2425027 -1.7880167
H 0.9200657 2.0412893 -0.23086365
H 1.9564661 0.700182 -0.79356045
H 1.3669901 -1.5068402 0.3879934
H -2.6696332 -0.7713273 1.0508935
