11

C 1.02832276 1.02116597 -0.81085967
N -0.00719741 0.20639282 -0.20802809
C 0.09104607 -0.70047593 0.74079843
N -1.15437844 -1.15662229 0.91493013
C -2.07413283 -0.51910645 0.05366158
N -1.30304837 0.33194941 -0.63794713
H 0.77499979 2.07325401 -0.67142664
H 1.98581236 0.79993674 -0.33787449
H 1.07648588 0.79965038 -1.87799002
H 0.99874654 -0.99049392 1.25283767
H -1.41665610 -1.86565097 1.58189802
