11

C 0.8109154 0.7726178 -1.2260501
N -0.90821916 -0.87223214 1.386294
C -1.6836523 -1.2884881 0.28194237
N -1.0794725 -0.6920641 -0.75557154
C 0.096296474 -0.0698684 1.0166532
N -0.014015582 0.03493255 -0.29070386
H 1.252695 0.07258832 -1.9366453
H 1.5950804 1.2996459 -0.6812838
H 0.1834223 1.4852006 -1.7636201
H 0.84787965 0.40577093 1.632368
H -1.1009295 -1.1481035 2.3366177
