11

N -1.23295588 0.85143829 1.40218290
C 1.03541453 0.47443881 0.52616607
C -0.47078919 0.32882622 0.53593995
O 1.48424446 -0.28255057 -0.60209530
C 0.43218790 -0.83445883 -1.24806053
O 0.51035857 -1.51983094 -2.22651548
N -0.72822213 -0.46225563 -0.57565576
H 1.48237364 0.06927691 1.43799176
H 1.33271421 1.51926481 0.40519099
H -2.21329808 0.63411544 1.23384198
H -1.63202801 -0.77826443 -0.88898662
