12

O 1.2984368 -2.0698168 -1.055892
C 0.13665994 -0.14175299 -0.24761833
C -0.98194724 1.7392687 0.5858356
O 0.21305543 0.35248008 -1.3456491
C 0.6882372 -1.5134538 0.067561224
O -0.43374366 0.4369461 0.8159794
H -0.19944605 2.4324915 0.26756245
H 1.1817695 -1.4281117 -1.7708461
H -0.1422462 -2.139969 0.4252941
H -1.4032264 2.049569 1.5404948
H 1.4012976 -1.4151624 0.89878863
H -1.7588468 1.6975117 -0.18151043
