12

O -0.66663253 -1.4510717 0.8786739
C -0.06140531 -0.22388157 1.2000403
C 0.44355288 0.45528936 -0.07514804
O 1.3259817 -0.42444953 -0.71925455
C -0.7106215 0.7761963 -0.99872124
O -0.7236545 0.37993413 -2.1377566
H -0.028853681 -1.9098587 0.31201556
H 0.78556895 -0.34855416 1.8884945
H -0.81460804 0.40021962 1.693255
H 0.94006884 1.4046162 0.18896799
H 1.0360231 -0.4626732 -1.6448381
H -1.5254198 1.4042331 -0.5857286
