12

O -0.61788580 0.31931664 0.74908731
C 0.94171369 -1.36358293 0.15031437
C 0.19410697 -0.10497562 -0.22668769
O 1.79665624 -1.75640743 -0.87866213
C -1.36124005 1.50718643 0.45595369
O 0.33067039 0.43579602 -1.29658985
H 0.20060886 -2.14435312 0.37693813
H 1.49991089 -1.16789469 1.07723256
H -1.96290502 1.69915054 1.34268118
H -0.68476826 2.34323783 0.26212969
H 1.66415924 -1.12044234 -1.59598284
H -2.00102705 1.35296851 -0.41641431
