11

N -1.7256253 1.8800343 2.0539565
C -0.37882978 -0.50030434 -0.12187452
C 0.7154661 -1.0379659 -0.90764254
C -1.1033838 1.4563808 1.1723665
C -0.31466502 0.9224164 0.10360111
O 1.2426937 -0.8669062 0.42621195
H 0.69431335 -2.088495 -1.1891865
H 1.1749591 -0.3853287 -1.6535177
H 1.0494236 0.2662781 0.5504807
H -1.0727822 -1.1770931 0.3674067
H -0.28156963 1.5309836 -0.80180216
