11

N 1.7246051 2.1685152 -0.30243987
C -0.042725965 0.31418738 -0.7456119
C 0.9222146 1.3566227 -0.49729258
C -0.060076546 -0.8839347 0.1908342
C -1.1820321 0.08640221 0.22886421
O 0.77252495 -0.8876301 1.2989904
H -0.2415688 0.12486846 -1.7957386
H -0.22295696 -1.8507894 -0.28618392
H -2.1412675 -0.19264896 -0.19161281
H -1.2172197 0.7404156 1.0942893
H 1.6885029 -0.9760084 1.0059017
