11

O 1.9349866 -1.1317908 1.1582938
C 1.4694542 -0.7522078 0.11717288
C -0.065494426 1.0453093 -0.8195198
C 0.08193201 -0.19682488 -0.026018701
O -0.41988 -0.19786997 -1.3577056
C -0.9142826 -0.40013608 1.068921
O -2.1592307 -0.29152796 0.6904996
H 2.0282238 -0.7707064 -0.8433985
H 0.82600415 1.5131695 -1.2364823
H -0.899923 1.6989927 -0.5689206
H -1.8817897 -0.5164079 1.8171581
