11

O 1.2017876 0.62929404 -1.9664737
C 0.16736344 0.6851907 -1.355964
C 0.040425565 0.16512477 0.051867135
C 0.86686045 -1.0012617 0.44120154
O 1.1967696 0.28922847 0.87264115
C -1.2539923 0.36309242 0.7757632
O -2.2894897 0.59541446 0.20680827
H -0.7645863 1.1056453 -1.780078
H 0.49465248 -1.6846085 1.2056231
H 1.515123 -1.4172912 -0.32869384
H -1.1749138 0.2701712 1.8773052
