11

N 1.25618916 0.26145338 -1.26942317
C -0.08492995 0.34854171 -1.13008572
O -0.92005999 0.19860698 -2.01950642
C -0.69734933 0.74103171 0.13907968
C -0.95775992 -0.45407367 0.98026335
O 0.34292162 -0.24806990 1.58497211
H 0.26245256 0.52093125 2.17115436
H 1.87195134 0.35902078 -0.48258540
H 1.63562290 0.09128190 -2.18965655
H -1.76750730 -0.38126657 1.71175261
H -0.94153082 -1.43745766 0.50403488
