11

N 0.9477407 0.73119205 -1.3509071
C -0.34187314 0.50752103 -1.0155458
O -1.2769645 0.33576715 -1.7947098
C -0.67390805 -0.8048136 0.9912246
C -0.78609043 0.54232293 0.37777632
O 0.65209746 -0.43260324 1.441837
H 1.6623089 0.8233035 -0.6518335
H -0.56119007 -1.6680717 0.3307845
H 0.5354404 0.19216917 2.1749797
H 1.1864022 0.8024195 -2.3295414
H -1.3439631 -1.0292065 1.8259355
