11

O -0.72316891 -0.70184910 -1.49847240
C -0.74031958 0.09442612 -0.09274064
C 0.46315204 0.86032485 -0.23872347
N 0.96642201 0.51902170 1.03553167
C -0.06165892 -0.55778967 1.12307095
O 0.98051426 1.37987400 -1.22723356
H -0.66205285 -0.57246063 2.03410222
H 0.39669653 -1.53938554 0.95940127
H -0.09278474 -0.11961054 -2.01550288
H -1.61525177 -0.56285361 -1.85095098
H 1.08845200 1.20030219 1.77151784
