11

O -1.5030226 -1.0435187 0.37944448
C -0.16598944 -0.7706501 0.068314135
C 0.029656054 0.23310241 -1.0928663
N 0.7644099 1.0781662 -0.14895746
C 0.5068198 0.30342644 0.9470556
O 0.68209255 0.43974793 2.1318731
H -1.5654358 -1.1249725 1.3402593
H 0.43554816 -1.6838919 -0.033470083
H 0.6278145 -0.11565161 -1.9378823
H -0.91697675 0.6597014 -1.4319003
H 1.1050837 2.0245402 -0.22187014
