10

O -1.5293514 -0.43620425 1.6029733
C -0.69888747 -0.09686061 0.59218866
C 0.9740475 0.12635693 -0.81120145
C 0.6197422 -0.547365 0.33487245
N -1.1230677 0.76929796 -0.3026259
N -0.08131489 0.89043343 -1.1506869
H -1.087233 -1.0846189 2.1622078
H -0.17100385 1.5128748 -1.9362379
H 1.8840661 0.11687869 -1.3933403
H 1.2130024 -1.250793 0.9018502
