11

O 0.82150303 1.06260349 -0.32535035
C 0.27104529 0.17736033 -1.25594475
C -0.12742056 0.10477380 0.17124851
C 0.31447961 -1.08973433 0.93595043
O 1.62876335 -1.04971562 0.96360439
C -1.45925897 0.71717697 0.49593828
O -2.29430681 0.20210661 1.18979564
H -0.42978123 0.61261738 -1.96846499
H 1.93027209 -1.84728768 1.42326829
H 0.93772793 -0.59747475 -1.63469246
H -1.59302402 1.70757377 0.00464691
