11

N -2.3669329 -0.21065243 -1.2597609
C 0.68626934 -0.29984593 0.48655233
C 0.17305976 1.0399663 0.95066607
C 0.13738765 -0.8451767 -0.8408171
C -1.2632582 -0.49796882 -1.0911905
O 1.5216441 -0.9358339 1.0779994
H 0.26922408 -1.931517 -0.85726875
H 0.7660352 1.3908262 1.7964005
H -0.87728864 0.94498533 1.249083
H 0.2038673 1.7715303 0.1363288
H 0.74999183 -0.42631373 -1.647993
