11

N -1.5076623 -2.22973 -0.24691823
C -1.0424271 0.31234807 0.16837695
C 1.4318011 -0.24955615 0.19972152
C -1.3577677 -1.0964108 -0.06238582
C 0.41751322 0.67791134 -0.2444283
O 0.73775214 1.9136606 -0.06963481
H 0.48945892 0.2857069 -1.337294
H 2.4588432 0.06650342 0.03761781
H 1.252696 -1.1922839 0.71687967
H -1.1607572 0.5494694 1.230847
H -1.7194502 0.9623809 -0.39278176
