11

N -1.31497710 -0.72512651 2.23131568
C 0.66900646 -0.03270256 -0.59073456
C -0.85766640 -0.93452286 1.19397070
C 0.29534249 1.37437103 -0.19779490
C -0.25546365 -1.16632488 -0.12081774
O 1.62179805 -0.30318092 -1.27715352
H 0.30833846 -2.10436197 -0.12139648
H 0.43682392 1.50159927 0.88160391
H 0.91952450 2.08768915 -0.73776095
H -1.05934676 -1.26420840 -0.86004285
H -0.76338022 1.56676888 -0.40118976
