11

N 1.3648922 -0.6667661 2.5955112
C 0.6599735 -0.6736735 1.682743
C -0.24247693 -0.65271634 0.515446
C -0.53176194 0.7418709 -0.07605231
C 0.24286017 0.2212329 -1.2927828
O 0.4032704 -1.07744 -0.6840823
H -1.1191982 -1.2662218 0.7479695
H -1.5936552 0.9320375 -0.2442
H -0.0819867 1.5798478 0.45856184
H -0.31368437 0.16066788 -2.231467
H 1.2117668 0.701161 -1.4716476
