10

C 0.004236253 0.30734605 0.87134415
C -0.43886414 -0.9536589 0.18535691
N 1.4242342 -0.56276035 -0.88104874
N 0.72019374 -1.5209342 -0.5399858
C -0.73541224 0.40329206 -0.38566652
C 0.74471253 0.65669036 -0.38793373
H 1.1905835 1.6233606 -0.5806721
H -1.1919177 -1.6226563 0.5804507
H -1.6152363 0.9334516 -0.71808463
H -0.102529876 0.73586935 1.8562398
