10

C 0.27054427 0.52730307 -0.88605236
C -0.91537212 0.09510738 -0.07254490
N 1.04946987 -0.67833142 -1.24894702
N 0.89244592 -1.48966891 -0.32852919
C 0.00638973 -0.83627716 0.66107787
C 0.25365346 0.64474689 0.61129496
H 0.26299533 1.37307684 -1.56059673
H -1.97418904 0.30619245 -0.06920636
H -0.26445539 -1.37272626 1.56086205
H 0.41851794 1.43057712 1.33264176
