12

N 1.4693477 0.9183986 0.38122445
C -0.9382068 -0.28542352 -1.0731161
O -0.16432504 1.4478117 1.8895597
N 0.085113026 -1.207575 -0.6026082
C -0.5784331 -0.33043298 0.36537874
C 0.25602227 0.7632024 0.9777969
H -1.9101665 -0.68045115 -1.3601909
H -1.309667 -0.7471022 1.0521847
H 2.118299 1.5695844 0.7976329
H -0.26836026 -2.155498 -0.5266893
H 1.8068354 0.17655389 -0.2147396
H -0.5664587 0.5309317 -1.6864333
