12

N 0.55720532 -0.90284159 -0.83846146
C -0.20179929 0.43668824 1.17161955
O -0.99638027 0.68912775 2.05570580
N 1.02320653 1.01381284 1.03585836
C -0.53090327 -0.53864809 0.07261103
C -0.54550417 -0.09817434 -1.34389879
H -1.25443738 -1.29205053 0.37077516
H 1.34886330 1.60760190 1.78414905
H -0.28586901 0.92995762 -1.58122712
H 1.68349092 0.58903594 0.40104045
H -1.27379789 -0.56097315 -2.00614492
H 0.47592512 -1.87353649 -1.12202801
