12

N -0.2949013 -0.23755963 0.518501
C -0.96245146 1.0169508 0.7801782
O 1.865937 0.5350413 0.7588267
N 1.4319081 -1.1997305 -0.67082715
C -1.2631289 0.24979466 -0.45724124
C 1.0813847 -0.22889933 0.23825552
H -1.6628879 1.0048403 1.610235
H 2.419218 -1.3957484 -0.72914815
H -0.8756894 0.6459455 -1.392606
H -2.1787915 -0.3328659 -0.53450584
H -0.36304855 1.9181129 0.6778033
H 0.8024511 -1.9758818 -0.7994708
