12

N 1.8851978 0.6613401 0.30507562
C -1.5449092 -0.5678868 0.11725594
O -0.07969777 1.8150642 0.11051571
N -0.11637817 -0.49190262 0.40533423
C -0.85152704 -1.0874015 -1.0954348
C 0.52424175 0.7770399 0.25502452
H -2.0701091 -1.2647809 0.76958174
H 2.3013687 -0.1701744 0.69629705
H 0.23618197 -1.376442 -0.22475187
H -0.6908805 -0.23717757 -1.7757761
H -1.9965047 0.42018324 0.06720474
H 2.4030163 1.5221382 0.36967325
