11

C 0.24285181 -0.42631093 0.052867956
C -1.2254591 -0.43399462 0.44383934
C 1.0621005 0.47001475 -1.9153558
N 1.4325588 1.3509277 -0.82040447
C 0.97940904 0.8519807 0.27153417
O 0.38486737 -0.53758746 -1.3831363
H 1.1212827 1.3227634 1.2404104
H -1.7022481 -1.3520681 0.09108256
H -1.745001 0.41998404 0.00065647974
H 0.7808116 -1.2782979 0.48552513
H -1.3311733 -0.38741162 1.5329803
