11

C 0.72747946 0.7804815 -0.5704566
C 0.045239605 -0.8879926 -0.9961856
C 0.2686885 0.5808832 1.6107326
N -0.9175897 0.5582596 1.1185544
C -0.6475584 0.6327227 -0.26785406
O 1.2842376 0.6506523 0.73606724
H 1.005209 -1.3356516 -0.7469695
H -0.09147994 -0.8611392 -2.073574
H 0.531319 0.5394819 2.6617568
H -0.7429357 -1.4805334 -0.51373667
H -1.4626092 0.8228356 -0.95833427
