11

C 1.87236708 -0.36782257 -1.17324644
C -0.05460242 -0.48001251 0.10059611
C -1.32658968 0.29433213 -0.20155185
N 2.10433607 0.34148227 0.07384715
C 1.03545920 0.27712430 0.78094197
O 0.62993414 -0.82752053 -1.12631341
H -1.98411079 -0.30016748 -0.84097363
H -1.09296478 1.22977765 -0.71727994
H -0.26884546 -1.42425503 0.61535892
H -1.86313294 0.52446749 0.72512638
H 0.94814982 0.73259431 1.76349465
