9

N 1.09231340 0.08818805 -0.33492280
C -0.02110096 0.85683754 -1.02283803
C -0.63320793 -0.51916072 0.75168621
C -1.06833139 0.41212763 -0.26817683
N 0.63372255 -0.76014537 0.77082122
H -2.10228149 0.70692858 -0.40219991
H 1.57603077 -0.50561064 -1.01030159
H 1.78591713 0.73931985 0.03477779
H -1.26306198 -1.01848497 1.48115390
