9

N -0.7738622 0.24512571 -0.8752627
C 0.57262313 0.31114206 -0.76079977
C 0.8699664 -0.11130087 0.515273
C -0.38601074 -0.40928182 1.0853968
N -1.3793668 -0.1908953 0.23671693
H -1.3398359 0.47857904 -1.6746213
H 1.1969078 0.6439766 -1.5765871
H 1.8456247 -0.19317168 0.9695482
H -0.6060463 -0.7741738 2.0803359
