10

N 1.3843517 -0.057719737 -0.97057986
C 0.15080144 0.12533973 -0.39937732
O -1.0155158 -1.0549995 2.6224988
N -0.87283695 0.7194932 -0.8444432
C -1.0007254 -0.53130084 1.5510362
O 0.15227932 -0.49844727 0.82331705
H -0.7190246 1.1174846 -1.7643812
H 2.129551 -0.3410473 -0.35244432
H 1.6417086 0.5683913 -1.7155764
H -1.8505893 -0.047194112 1.0499501
