10

O -1.7704165 -1.1058351 1.2120255
C -0.8786633 -0.5486903 0.6016557
N -0.86521804 -0.13844264 -0.7218367
C 0.3456816 0.46585563 -1.051908
C 1.113899 0.44770753 0.05202668
N 0.37404168 -0.16808785 1.0593412
H -1.6513947 -0.28080586 -1.3307546
H 0.54699856 0.8505778 -2.0390544
H 2.1143632 0.81372994 0.2142588
H 0.6707083 -0.33600914 2.0042458
