11

N 1.6182408 -1.598168 0.6428459
C 0.7558793 -0.7353026 0.30612195
C 0.85643137 0.6711955 0.73746026
N 0.022925597 1.5888317 0.4276586
C -1.0535712 1.2038312 -0.37721923
C -1.2045852 -0.05099093 -0.8022441
O -0.32924172 -1.0436379 -0.48529276
H 1.3958927 -2.5130327 0.25697476
H 1.7140009 0.91239417 1.3614801
H -1.7636473 1.9776862 -0.64136845
H -2.0123253 -0.41280675 -1.4264171
