11

O 0.18767911 -1.907562 1.1292522
C 0.02832583 -0.76495093 0.4141578
C -0.87631315 -0.36779213 -0.53750384
C -0.5025705 0.96533906 -0.9074669
C 0.59615695 1.3151218 -0.17609768
N 0.9171023 0.24180326 0.63608223
H -0.50767326 -2.5216608 0.864866
H -1.6996783 -0.95048535 -0.9255487
H -1.0049914 1.5820395 -1.6382713
H 1.1821111 2.2208438 -0.15133533
H 1.6798514 0.18730406 1.2918656
