11

O -0.7739706 0.69491976 -1.0540575
C -0.021759165 -0.48486352 -1.1772913
C -0.26646414 -1.2052724 0.05901992
C -0.45327795 0.9416459 0.24678713
C -0.5975279 -0.27882206 1.0071354
N 0.6612253 1.6656201 0.2273273
H 1.1144695 1.6526754 1.1407167
H 1.1123307 0.6019051 -0.59125245
H -0.08560244 -0.9516105 -2.1577265
H -0.06894323 -2.260472 0.21491274
H -0.6204801 -0.3757256 2.0844288
