11

O 1.1981834 0.6324865 -1.9662826
C 0.164032 0.68492705 -1.3566529
C 0.041729845 0.16366455 0.054004088
C 0.8665494 -1.003012 0.4386247
O 1.1986057 0.2887506 0.87292206
C -1.2526451 0.3644052 0.777213
O -2.2871382 0.5997401 0.20525992
H -0.76810616 1.1033279 -1.7811381
H 0.49876326 -1.683776 1.2082356
H 1.5156168 -1.4188507 -0.33062446
H -1.175591 0.2683366 1.8784385
