11

C -1.144861 -0.3126221 0.7062157
N -0.058528 0.65685594 0.63755
C 1.1051338 0.18373188 -0.082024224
C 0.83386886 -0.17239909 -1.4977764
N 0.55320185 -0.42132753 -2.5906043
H -1.5149618 -0.63934 -0.2770676
H -1.9754093 0.1294579 1.2644706
H -0.8036609 -1.1955634 1.2578722
H -0.38652024 1.5195594 0.2174411
H 1.884209 0.95275885 -0.061830405
H 1.5075274 -0.7011118 0.42575356
