9

O -1.0741994 -1.4766992 -1.1149749
C -0.3091146 -0.82605636 -0.19296555
N 1.3402992 1.1005785 0.9774577
N 0.40316367 -1.220152 0.7462929
C -0.5088504 0.65221584 -0.18870217
N 0.49787104 1.4359809 0.09965861
H -1.0119729 -2.419668 -0.9017529
H -1.5100192 1.0686681 -0.25028408
H 2.1728227 1.6851323 0.82527024
