11

C 0.59657884 0.7341059 2.241799
C 0.30868432 0.16354625 0.928949
C 0.07467789 -0.31462815 -0.15055174
C -0.14607687 -0.9701788 -1.4428803
O 0.3285036 -2.0541313 -1.7162347
N -0.94161725 -0.26199502 -2.2982662
H 0.46016636 -0.0199211 3.025004
H -0.061189834 1.5787622 2.4628813
H 1.633211 1.0819387 2.287883
H -1.0360932 -0.62336767 -3.2353015
H -1.2168448 0.6858691 -2.1032813
