11

C -0.648096 1.4242699 -0.25379854
C -0.014593443 0.347023 -0.97041184
C -0.7358741 1.034391 1.0342796
C 0.22319497 -0.6140194 -0.037410412
O -0.20244405 -0.22098686 1.1820899
N 0.73720104 -1.9012514 -0.090500526
H -0.98601645 2.364385 -0.6678808
H 1.3492205 -2.0444925 -0.8822182
H 1.1804838 -2.1818817 0.77566975
H 0.2187822 0.30664152 -2.0243092
H -1.1218584 1.4859219 1.93449
