11

C -0.42699197 -0.5666529 0.2555284
C 0.6720191 -0.88258564 -0.50022393
C 1.1873395 0.5438522 -0.77346224
C 0.40664712 1.4443017 -0.035256132
O -0.5684099 0.7877646 0.5564261
N -1.4409238 -1.350901 0.77935964
H 2.159011 0.7877005 -1.1891598
H 0.51800007 0.1429025 -1.6300921
H -1.2104883 -2.3332188 0.7092753
H 0.44874954 2.5142732 0.12088144
H -1.7449529 -1.0874366 1.7067233
