11

C -0.989802 0.8931677 -0.11785555
C 0.0585732 -0.19512653 -0.17248704
C 0.67681664 -0.738331 1.0460738
O -0.31548983 -1.4635614 0.3370927
C 0.8387846 -0.24762481 -1.4082445
N 1.4472064 -0.25277764 -2.390252
H -1.718083 0.7631774 -0.9217998
H -1.513964 0.8474307 0.8410889
H -0.5275303 1.8784612 -0.22552356
H 1.6800566 -1.1556585 1.0065898
H 0.36343175 -0.32915705 2.0053174
