11

C -1.32085894 0.32031642 0.77195122
C -0.19497808 -0.25489955 -0.03093729
C 0.66562922 0.50938745 -0.78090143
O -0.27364634 -1.55943246 -0.60708571
C 0.63271433 -1.46853028 0.47482904
N 1.32056796 1.20878778 -1.52403571
H -1.71610028 -0.48022148 1.39908480
H -2.11138544 0.70701124 0.12352333
H 2.28726261 1.42322740 -1.30089030
H 1.66469164 -1.52981201 0.05900133
H -0.95389662 1.12416557 1.41546087
