11

C 0.0996815 -0.7750151 1.1728607
C 0.22121526 -0.4082519 -0.23625122
C -1.2267833 -0.47607255 -0.3425559
O -0.34335107 -1.0579978 -1.357373
C 1.0973104 0.78266567 -0.5191169
N -0.59404 -0.22809054 1.9967717
H 0.95419943 1.5418332 0.25540856
H -1.7608463 -1.3445067 0.0522482
H 2.1492696 0.4844613 -0.52995265
H 0.8262089 1.1838404 -1.4978737
H -1.4228647 0.2971343 1.005834
