12

O -0.59640593 0.03540039 1.34447119
C -0.25554154 -0.59624581 0.12891753
C 1.26778732 -0.49506930 -0.03616595
O 1.67400138 0.84933944 0.08205564
C -0.90938912 -0.07407733 -1.12306668
O -1.73793820 0.88656229 -0.75882376
H -0.52557243 -1.66671794 0.16638665
H 1.74728756 -1.12940028 0.72353367
H -1.32058620 0.64636931 1.14887386
H 1.27540770 1.16657529 0.90391245
H 1.55996815 -0.84685420 -1.02797159
H -2.17901875 1.22411806 -1.55212303
