12

O 0.07412914 0.48871338 1.424038
C -0.40901956 -1.2473972 -0.13944556
C -0.58831614 0.2340778 0.21294752
O 0.887836 1.9193395 -0.51933444
C -0.038366318 1.0815599 -0.9032333
O 0.96051776 -1.5617479 -0.14820784
H -0.8066245 -1.444565 -1.1368383
H 0.6728306 1.2390106 1.2617975
H -1.6631914 0.4629873 0.28555736
H 1.3033447 -1.2469902 0.69992065
H -0.9654166 -1.8504294 0.59077233
H 0.5722765 1.9254409 -1.6279738
