12

O 1.85387 0.17628218 -0.24996366
C -1.0147696 -0.2592461 -0.9983932
C -0.4138054 -0.34964526 0.3793989
O -1.445573 0.9783721 -1.1555701
C 1.0312599 -0.8528609 0.2506342
O -0.3871764 0.833573 1.1488283
H -1.0026377 -1.1280026 0.8967649
H -0.8983703 1.4953231 0.6622628
H 1.0746193 -1.6876013 -0.45230898
H 1.6789012 0.9419682 0.31401768
H -1.8494346 1.050208 -2.032813
H 1.3731164 -1.1983702 1.2371418
