12

O -0.6628935 -1.4514184 0.8782278
C -0.0592332 -0.22386971 1.1983949
C 0.4446117 0.4541658 -0.074390724
O 1.3277358 -0.42351943 -0.72042716
C -0.71282727 0.77501464 -0.9955895
O -0.7274801 0.3814521 -2.1359782
H -0.024973752 -1.9071167 0.3086766
H 0.7859177 -0.34619153 1.889763
H -0.8165889 0.39647543 1.6912773
H 0.93814075 1.4061015 0.18574893
H 1.0312907 -0.46373308 -1.646041
H -1.5237 1.4026393 -0.57966197
