11

N -1.68874174 -0.49671037 -0.51355194
C 1.72826913 -0.00185580 -0.03637366
C -0.37811684 -0.03382916 -0.02299380
C 1.26558250 0.85574172 0.91545995
C -0.20316021 0.85923858 0.95665491
O 0.68799719 -0.61204058 -0.67630173
H 2.70742998 -0.29692922 -0.38512241
H -1.85158212 -1.49891132 -0.38416256
H -1.86941177 -0.26558108 -1.49394221
H -2.31889097 0.04309482 0.09373988
H 1.92062501 1.44778278 1.54659339
