11

N 0.5609165 -1.412983 -1.3642135
C 0.17434719 -0.44079992 -0.44987047
C -1.0232407 0.10490837 -0.10587678
C -0.71178645 1.1330811 0.85479015
C 0.62979716 1.1188549 1.0107274
O 1.1887788 0.1529126 0.21315356
H 1.4314836 -1.8597037 -1.1083775
H -0.16392364 -2.098261 -1.5314175
H -1.9965478 -0.16953377 -0.48342663
H -1.4119788 1.784804 1.3536134
H 1.3221543 1.6867208 1.6108977
