10

O 1.7521774 -1.1315253 1.0096905
C 0.80301213 -0.61259234 0.5007701
C 0.50586295 -0.08485554 -0.9307355
C -0.7225894 0.5835022 -0.3086675
O -1.5206056 -0.4662796 0.19955005
C -0.47163814 0.026074946 1.034041
H 0.29324004 -0.82103336 -1.7079289
H 1.2931664 0.5992771 -1.2591406
H -1.1990218 1.5230671 -0.56088775
H -0.733604 0.38436472 2.023308
