10

O -1.5213716 -1.6429166 0.47882995
C -0.643118 -0.8613603 0.25420165
C -0.011071098 0.9949233 -0.8180385
C 0.23001109 -0.48337084 -0.8871175
O 1.1998056 0.27907884 -0.13147421
C -0.09733048 0.2629305 1.1472808
H 0.36371982 1.5037527 -1.7177817
H 0.625329 -0.04091455 1.9112599
H -0.7609086 1.055784 1.4777602
H 0.6149343 -1.0679072 -1.7149205
