11

O 1.7524453 -0.9175675 -1.8363197
C 0.7307209 -0.2680982 -1.9167528
N -0.03338129 0.082100034 -0.85461766
C 0.34089783 -0.32297924 0.49035555
C -0.57893926 0.25120416 1.4716243
C -1.3434758 0.7272713 2.2672374
H 0.31974283 0.10396017 -2.8749218
H -0.878857 0.6158572 -0.99442375
H 0.33554837 -1.4173915 0.56475836
H 1.3680967 0.0005084111 0.69618976
H -2.0127988 1.145135 2.98687
