11

C -0.8219504 0.748074 -0.8342942
C 0.50087035 0.62610126 -0.12802434
O 0.49134958 0.68210906 1.2890066
C 0.8698575 -0.54491955 0.6883432
C -0.05367669 -1.6573081 0.8518119
N -0.77208024 -2.5555422 0.96411085
H -1.1545272 1.7898583 -0.8325584
H -0.72624886 0.42170542 -1.8747269
H -1.5872167 0.13948083 -0.3440266
H 1.3359257 1.1664007 -0.5777202
H 1.9176972 -0.8159596 0.798078
