11

C -0.8468593 -1.1293128 1.3065643
C -0.032064408 -0.69990075 0.39609617
O 1.2750047 -0.8466579 -0.007849395
C 0.6686472 1.4428357 -0.8486856
C 0.3710753 -0.029330252 -0.8070314
N -1.6280136 -1.3957301 2.2324066
H -0.22114174 1.9900985 -1.1758181
H -2.131174 -2.2730603 2.0761442
H 0.10439422 -0.5023719 -1.7533454
H 1.4764757 1.6410319 -1.5599614
H 0.9636557 1.8023978 0.14148018
