10

O 0.68843013 -2.0006292 -0.62702763
C 0.073118694 -1.0162424 -0.16137904
C 0.049927816 0.3659522 -0.6714248
C -0.33147955 -1.7091637 0.9750292
O -1.0213289 1.1518611 -0.16979128
C 0.27873814 1.4535187 0.29072228
H 0.4674268 1.205694 1.3336458
H 0.7097513 2.381221 -0.080272034
H -1.2234049 -2.3269572 0.83084214
H 0.30882055 0.49474505 -1.7203447
