9

O 0.44077329 -0.55926320 2.01021700
C -0.63717620 -0.30090984 1.13936132
C -0.21626960 -0.03968644 -0.24441314
C 0.19174124 0.20159957 -1.34549830
C 1.04430744 0.69982052 -3.64008435
N 0.63778308 0.46602819 -2.55656240
H -1.25095137 0.54421066 1.48775236
H 1.05526016 0.18363857 1.97675256
H -1.26546796 -1.19543797 1.17247465
