9

O 1.15235 -0.9644019 1.5132902
C -1.2848171 3.1506934 -1.8035845
C 0.39174226 -1.2304548 0.3566559
C -0.08557598 -0.014537208 -0.3170974
C -0.4760332 1.0113353 -0.79897815
N -0.9053597 2.1375177 -1.330903
H 1.0541203 -1.7880114 -0.31148598
H -0.47291628 -1.8761224 0.5752969
H 0.6264897 -0.42601833 2.1168058
