10

O 1.3155986 -0.9120261 0.49486902
C 0.40522465 0.1375457 0.3656779
C 0.008606567 0.44455767 -1.0793229
O -1.3892008 0.18068399 -0.7636515
C -1.0834113 -0.20549183 0.50512
O -1.8056992 -0.6573308 1.3365151
H 1.3261985 -1.1974365 1.4168065
H 0.68332505 1.0247905 0.950848
H 0.391008 -0.28229427 -1.7974828
H 0.14834988 1.4670017 -1.429379
