10

O 1.76961262 -0.66412745 0.14860481
C 0.48618575 -0.28749910 -0.21414640
C 0.15713355 -0.30738961 -1.49228047
O -0.10221232 -0.31589859 -2.62853276
C -0.46799654 0.24576628 0.82661749
O -1.56311221 0.90549476 0.23024547
H 1.74543802 -1.59225083 0.42179624
H 0.09218655 0.90042782 1.50904418
H -0.88472027 -0.57584679 1.41994715
H -1.23251522 1.69132357 -0.22129540
