10

O 1.5049322 0.81593126 0.81493115
C 0.7788878 0.18660049 -1.3056012
C 0.5693648 0.20176393 -0.0024635077
O 0.97821236 0.20327057 -2.4538145
C -0.7152722 -0.32967064 0.58516765
O -1.6761706 -0.57629174 -0.41784376
H 2.0938826 0.1325272 1.1652557
H -1.9217827 0.26810056 -0.8145638
H -0.53814846 -1.286524 1.0889589
H -1.0739058 0.3842925 1.3399733
