12

O 0.53960943 -0.9559387 0.51701194
C -0.24699973 1.1875073 0.31265274
C 1.0218192 0.37743586 0.5420963
O -0.59532315 -1.7627974 -1.3494533
C -0.6627484 -0.99771106 -0.21459107
O -0.99351716 0.3350419 -0.53741074
H -0.08035266 2.1362834 -0.20301825
H 1.7562635 0.54104614 -0.2566449
H -1.439286 -1.467475 0.4013365
H -0.0060524144 -1.3187486 -1.974078
H -0.7887113 1.3655037 1.2509078
H 1.4952989 0.5598528 1.5111909
