12

O -1.2637124 -0.65799415 1.2343637
C 0.126638 -0.48660433 1.1825666
C 0.58578974 0.70369506 0.3455087
O 0.85417014 0.40556598 -1.0447301
C -0.15087155 0.026682725 -1.825106
O -1.2901323 -0.18668585 -1.4890547
H -1.5772651 -0.6309229 0.315422
H 0.65704393 -1.3865854 0.829067
H 0.4525659 -0.3033174 2.212569
H 1.5521822 1.0754606 0.69324297
H -0.15938972 1.5018047 0.4031294
H 0.21298105 -0.061099116 -2.856979
