12

O -0.10499628 -1.20761326 -0.05426370
C 0.87262745 -0.49665140 0.68724036
C 0.20790528 0.85855766 0.88802489
O -0.54316602 1.00015419 -0.30463423
C -0.93077399 -0.28808524 -0.72895744
O -0.86590109 -0.38226530 -2.09451124
H -1.97771703 -0.49693755 -0.47727003
H 1.06717519 -1.03745418 1.61798568
H -0.45565615 0.85821232 1.76274931
H 1.80613894 -0.40890154 0.11713466
H 0.91143920 1.69156211 0.95878867
H 0.01292439 -0.09057788 -2.37228735
