12

C 0.42031336 0.82386315 0.038810723
C -1.260421 -0.85952955 0.4147332
O 1.2828097 -1.3954582 -0.08713083
N -0.29781243 0.11935861 0.8496721
C 1.1992798 -0.28171715 0.61877364
N 0.17616224 1.46941 -1.0933043
H 1.8548455 -0.12360373 1.4706641
H 0.92311656 1.8625786 -1.6428971
H -0.7763872 1.6502049 -1.3715544
H -1.9326947 -0.42564505 -0.33453152
H -1.819523 -1.2358882 1.2755796
H 0.2303114 -1.6035731 -0.13881537
