12

C 0.25427377 0.808701 -0.19528377
C 0.04715423 -0.33627728 0.6978357
O 0.8786906 0.2712928 -1.3328826
N -0.8527467 -0.23177844 1.6735291
C 0.4544728 -0.99635756 -1.4847873
N -0.13258204 1.9846678 0.034211308
H 1.2193744 -1.6460361 -1.911904
H -0.81539303 -0.8258633 2.4883657
H -0.5840607 -1.174122 -1.7498404
H 0.83438396 -1.071921 0.78711003
H 0.10246428 2.602801 -0.7426206
H -1.4060316 0.6148931 1.7362671
