14

C 0.3628306 0.4806571 -0.24429001
N 0.7925281 1.2571242 -1.1617941
C -0.37857276 -0.11414594 2.04985
O -0.22972746 -0.68823844 -0.5475858
N 0.4356646 0.65489024 1.1226313
C -0.26736513 -1.0101354 -1.933343
H -0.24032994 -1.1810907 1.8675212
H -1.4493889 0.11363699 1.9756216
H 0.638106 1.6020205 1.3998
H -0.038583472 0.10942751 3.0647352
H 1.2186077 2.0877495 -0.76327085
H -0.7618602 -1.9799613 -1.9890298
H -0.82716733 -0.25894743 -2.4965394
H 0.74525833 -1.0729867 -2.344306
