10

O -1.4760998 -1.4152044 1.3722076
C -0.8324262 -0.5626907 0.8439373
O -1.0956016 0.7827784 0.8258897
C 0.48516408 -0.51904196 0.115493886
C 0.20914552 0.45153865 -1.022296
C 0.11204764 1.2813525 0.22103661
H -0.7187171 0.2996223 -1.5672932
H 1.2166759 -1.3158128 0.034158558
H 1.0266107 0.34956086 0.8323238
H 1.0732008 0.64789736 -1.6554585
