10

O 0.058052097 0.74676687 -1.1150026
C -1.21234 -0.7956411 0.19082019
O -2.1590264 0.69376284 -1.48089
C 0.9730678 0.23362596 -0.14728625
C 0.08283163 -0.5442206 0.8297621
C -1.1972082 0.2876906 -0.8893019
H 1.5106928 1.0747294 0.29643658
H 1.6904392 -0.42158493 -0.6502068
H -0.28502136 0.12523979 1.6346054
H 0.5385125 -1.4003688 1.3310636
