10

O 1.4478332 -1.271183 0.86835027
C 0.54748493 -0.45586225 0.32236198
C 0.882549 0.89634013 0.08455214
N 0.0077914046 1.7138867 -0.4539758
N -1.2072557 1.2578198 -0.7774781
C -1.4668761 -0.012805914 -0.53248113
N -0.63897115 -0.9199487 0.012700075
H 1.0299928 -2.1445463 0.94568074
H 1.8588703 1.2960223 0.33558542
H -2.4614184 -0.35972273 -0.80529577
