10

O 2.40519988 -0.28756095 0.94341066
C 0.28340827 -1.19742173 0.42771298
C 1.28236972 -0.13122035 0.49868605
N 0.85802252 1.11143214 0.01952400
N -0.36399626 1.15221640 -0.43890670
C -1.25561602 0.15756215 -0.49958603
N -0.92302652 -1.06452666 -0.05051158
H 0.57862502 -2.17684421 0.79802165
H -0.63465117 2.06922744 -0.77972534
H -2.23033515 0.36713580 -0.91862587
