10

O 2.0415926 -0.94542956 1.302215
C 0.2849352 -1.2456727 -0.25335538
C 1.087167 -0.48349473 0.70333445
N -0.73631966 -0.77791727 -0.91674674
N 0.67814565 0.8386957 0.89920694
C -1.0646048 0.5036786 -0.68110806
N -0.35285285 1.2207738 0.19478492
H -1.8921899 0.98398167 -1.1850969
H 0.57221043 -2.2807665 -0.42541233
H -0.6180838 2.1861508 0.36217803
