11

N 0.7966136 -0.2518094 -0.059811715
C 0.5608379 1.1515776 1.2804238
C 0.2237848 -0.99481106 -0.93270713
N -0.42060763 1.7302331 1.654894
C -1.2162052 -0.82442 -1.1014439
C 1.5898663 0.41969785 0.7458003
O -1.9026906 -0.03814996 -0.46549058
H -1.6834679 -1.4700717 -1.8710209
H 0.77003974 -1.7294223 -1.5240272
H 2.6564322 0.4016878 0.93156236
H -1.3746029 1.6054878 1.341821
