11

N 0.15942580 -0.66727863 -0.06059273
C 1.10316869 -1.52241872 0.32692407
C 1.28608465 -0.22702653 0.78457030
N 1.78541164 0.74416092 1.36654160
C -1.38005721 1.01502317 -0.64932203
C -0.94105532 -0.35689302 -0.70637813
O -0.79707508 1.90134793 -0.04414188
H 1.35137058 -2.56001440 0.20983433
H 1.21762726 1.58419057 1.22599557
H -2.31190685 1.22423153 -1.20939255
H -1.47299425 -1.13532281 -1.24403863
