11

N 0.33225518 -0.5398016 0.2693874
C 1.4455459 0.08062614 -0.4743436
C -0.93444026 -0.5110363 0.6144844
N 1.762955 1.0339483 -1.196598
C 1.5465248 -1.0853583 0.2681002
C -1.7346188 0.57846993 0.11366249
O -1.3129861 1.4695469 -0.6073718
H 2.0490346 -1.9404477 0.6782526
H -1.3219907 -1.2932124 1.2594619
H 0.9620935 1.6505588 -1.358445
H -2.794373 0.55670637 0.43340966
