10

O -1.2418284 -1.0252001 -0.51363754
C -0.61173576 0.15562655 -1.110564
C -0.2818629 -1.0308175 0.46494123
O -0.31193906 -1.5721172 1.5303824
C 0.6202757 -0.092516884 -0.24972369
O 0.93195397 1.1338068 0.8678843
H -1.1788197 1.0571499 -0.8750808
H 0.82553405 0.6724964 1.7251438
H 1.7251214 0.67389315 0.34594387
H -0.47669935 0.02767884 -2.1852899
