11

O -0.7408744 0.14043656 2.2922587
C -0.3479916 -0.08919356 1.0955006
N -0.18405744 1.0427332 0.4560265
C -0.039184526 -1.2515713 0.26836407
C 0.25912297 0.7700957 -0.9000634
C 0.32549244 -0.74371296 -0.9225096
H -0.1019179 -2.286117 0.5809279
H -0.5866955 1.3465252 1.6827734
H -0.45166963 1.1554301 -1.6429967
H 1.2373453 1.2204691 -1.111628
H 0.63043034 -1.305095 -1.7986535
