11

O 1.2542093 -0.65576106 -2.1063006
C 0.62398106 -0.347963 -1.1152388
N 1.1403894 0.031572774 0.09946453
C 0.12935449 0.3373995 1.0832013
C -1.13941 0.09330552 0.3058276
C -0.8599336 -0.2927483 -0.93709433
H 2.1324801 0.08133937 0.26118422
H 0.19078034 1.3766605 1.4325681
H 0.1942096 -0.3152954 1.9628173
H -2.1189272 0.23247378 0.7484368
H -1.5471333 -0.54098344 -1.7348663
