10

O 0.60917179 1.54240715 -1.39985092
C 0.28018375 0.53618939 -0.84100886
C -0.07453770 0.11923635 0.54770484
O -0.28944449 -1.19311343 0.16148558
C -0.18179564 0.67983617 1.74593732
C 0.02789546 -0.92909978 -1.22717879
H -0.47400291 0.10681185 2.61748600
H 0.02470002 1.73878831 1.84625069
H -0.82659259 -1.10918186 -1.88663922
H 0.90442243 -1.49187468 -1.56418678
