11

N 0.23696302 0.73520446 -2.67488243
C -0.13956635 0.62920645 -1.58634869
C 0.40582363 -0.01214431 0.80873821
C -0.57700357 0.52864393 -0.21661073
C -0.75967610 -0.83926057 0.41316376
O 1.64253553 -0.47225347 0.38113897
H -1.24641166 1.32109289 0.10264638
H 2.17782586 0.28174403 0.10435774
H -0.54202486 -1.69574003 -0.21721706
H -1.58807275 -0.95630954 1.10272148
H 0.38960730 0.47981609 1.78229259
