11

N 1.6497443 -0.28950688 1.6587797
C -0.95066726 -0.2779767 -0.613394
C 0.6725118 -0.46429735 0.9616348
C -0.36506355 -1.1243377 0.3501342
C -0.0981216 0.7662816 -1.1836094
O -0.102664426 1.3020617 0.11165523
H -2.016333 -0.33427316 -0.82482153
H 1.7798628 0.55089897 2.2016292
H -0.58970034 1.4107814 -1.9244517
H 0.87574947 0.4221042 -1.56531
H -0.85531783 -1.9617361 0.82775354
