11

N -0.67357299 0.09095796 2.54124949
C 0.84761900 0.33503339 0.51397878
C 0.08167027 0.16061237 1.57286204
C 0.50867620 -0.24257776 -0.81673446
C -0.69485219 0.15197616 -1.55935720
O -0.61887455 -1.09663990 -0.87987313
H 1.75936058 0.91557873 0.60586041
H -0.49176821 -0.69263219 3.16967192
H -1.37145004 0.87632653 -1.10919203
H -0.71465144 0.09107528 -2.64620680
H 1.36784329 -0.58971058 -1.39225873
