11

N 1.3457451 0.56775343 1.8398762
C 0.63998365 0.26686016 0.8361958
C -0.7685036 -0.1765337 0.8534581
C -1.1565043 -0.39548367 -0.39829567
C -0.012368647 -0.10801265 -1.3256055
O 1.0549186 0.29761997 -0.46803585
H 2.2847204 0.8420494 1.5578845
H -1.3307998 -0.28134987 1.7729007
H -2.1297328 -0.72723395 -0.7425966
H -0.23121972 0.70263517 -2.0302644
H 0.30376104 -0.9883043 -1.895517
