10

O -0.34093434 1.1449927 -0.0762455
C -0.028147064 -1.077344 0.47271875
C -1.0738227 -0.052143052 0.07091261
O -0.17801534 -2.185905 0.8915598
C 0.984854 0.77632505 -0.33219492
O 1.181037 -0.505744 0.25706062
H 1.657721 1.4957353 0.13810618
H -1.8307539 0.074774094 0.84923005
H -1.5627095 -0.36827 -0.86208427
H 1.1907707 0.697579 -1.4090632
