10

O 1.2413964 -0.4198085 0.52775824
C -0.44890043 -0.59686345 -0.34146348
N -0.28114069 1.4365892 0.5523655
C -1.0476205 0.42354107 0.5644308
C 0.90322876 1.037043 -0.31159645
N 0.17758478 0.109634474 -1.2945276
H -0.74063057 -1.6394583 -0.4286247
H -1.9660021 0.30277514 1.132892
H 1.3407314 -0.23889399 1.4764291
H 0.8213528 -0.41455853 -1.8776634
