11

C -0.73108596 -0.17238455 -2.3149104
C -0.1652999 -0.12239288 -0.96908224
C 0.3170048 -0.08681178 0.13484423
C 0.9780997 -0.09825234 1.4392055
O 2.0862088 -0.5642287 1.6077788
N 0.24551821 0.47315547 2.4395204
H 0.00868616 0.15226784 -3.052732
H -1.6073574 0.47605085 -2.3995588
H -1.0326337 -1.1937283 -2.5633078
H 0.61673903 0.40237454 3.3753939
H -0.71588016 0.7339499 2.3028483
