11

C -0.50367122 1.17125906 -1.28963087
C 0.03953492 0.19055467 -0.61542999
C 0.87582741 -0.93352942 -1.17226173
C -0.07163586 0.28153350 0.89467057
O 0.78562427 -0.19236187 1.60919145
N -1.17983741 0.91925977 1.35387524
H 1.09580029 -0.78401016 -2.22978678
H -1.92935386 1.18513167 0.74028021
H 0.35854374 -1.88989880 -1.04234072
H 1.80782151 -0.97386230 -0.60060651
H -1.27865422 1.02592393 2.35203901
