10

N 0.60315895 -0.81174886 1.5039055
C 0.013488265 0.16689953 0.74260294
O -0.40161002 1.2130753 1.1906807
N -0.10131364 -0.17397715 -0.6059639
C -0.63875115 0.6764839 -1.5602899
O -0.76865625 0.34767833 -2.7137082
H 0.82737356 -0.5180173 2.443736
H 1.2528826 -1.4533662 1.0789868
H 0.13295498 -1.1017349 -0.93204516
H -0.9195273 1.6547071 -1.1479049
