10

N -0.33635092 -1.2543923 1.0532036
C -0.27023143 1.0146369 -0.0086070625
C -0.24650425 -1.8971273 2.0310748
C 0.7998461 0.18450595 -0.6542537
C -0.43618247 -0.47593692 -0.11106236
H 0.91251236 0.21568607 -1.7344484
H 1.720845 0.030437585 -0.10177131
H -0.06815542 1.4188358 0.97784424
H -1.1650889 -0.8654695 -0.8167196
H -0.91069 1.6288238 -0.6352604
