10

N 0.09749615 1.1347556 -0.26431376
C -1.2780033 0.8161418 -0.25458413
C 0.9780351 -0.037770998 -0.026998986
C -1.2277158 -0.5679331 0.007202827
C 0.07501179 -1.0733166 0.14875016
H 2.0362294 0.011775819 -0.23770112
H 0.3578922 -2.0902088 0.39083326
H 0.4539309 1.9863302 -0.68001604
H 0.62899965 0.9912659 0.7969436
H -2.121876 -1.17104 0.1198843
