10

N -1.0500541 0.26391116 0.3610477
C -0.6609115 -0.9681841 -0.09969455
C 0.66914546 -0.88709605 -0.4377163
C 1.0953563 0.4440096 -0.17002155
C 0.011928398 1.1309798 0.3224773
H -1.9748956 0.49540988 0.68222547
H -1.3586287 -1.7912405 -0.14704563
H 1.2758747 -1.6889879 -0.83386636
H 2.086819 0.8455042 -0.32422093
H -0.094634265 2.1556935 0.64681476
