11

N 1.59087993 0.09025826 1.62623530
C -0.41208006 -0.07685977 -1.19827014
N -0.48668998 -0.18986872 -2.45540187
N -1.33786226 -0.02918031 -0.17294851
C 0.52674703 0.05726386 0.77280272
N -0.71049290 -0.03465766 1.08229113
O 0.80226572 0.07527810 -0.55798113
H 1.31485568 0.26545748 2.58119874
H -1.45041735 -0.27526384 -2.76201874
H 2.37513839 0.64153849 1.31117356
H -2.21234461 -0.52396585 -0.22708086
