11

N -1.4012692 0.8664093 -1.8941212
C -0.80194056 0.29414213 -0.93911684
N 0.114618786 -1.1351284 0.6129449
N 1.738096 0.3892531 1.4181647
C 0.6747352 0.013736813 0.6500072
N -0.89933187 -0.94713134 -0.33879563
O 0.17699914 0.9408027 -0.21024182
H -2.0999985 0.25835615 -2.3090012
H -1.1689993 -1.7656591 -0.8581743
H 1.9322882 -0.2697715 2.1576343
H 1.7348021 1.3549898 1.7107
