11

N 1.8066477 0.64964885 -1.3091094
C -0.79779446 -0.0020244468 0.79075426
N 0.4916844 -1.1998781 -0.5336076
N -1.9495082 0.009483797 1.4200958
C 0.79723305 0.053063426 -0.61119914
N -0.4681371 -1.2307038 0.47272348
O 0.03732201 0.8848003 0.20093766
H -2.13834 0.6769806 2.1601365
H 1.5660076 1.5306891 -1.739391
H -1.6232123 -1.3783612 1.0761987
H 2.278097 0.0063014654 -1.9275393
