11

C -0.99862146 -0.9317118 1.5407553
N 0.32048023 0.15126967 -0.29524353
C -0.48835996 0.3029394 1.8039706
C 0.9306942 0.32700115 -1.5952439
N 0.08504961 1.3255945 1.6367475
H -2.0536377 -1.0346488 1.3164166
H -0.6150846 0.5473759 -0.39729348
H -0.4264568 -1.8075823 1.8272691
H 0.9419267 1.3853941 -1.8964788
H 0.35126454 -0.21121053 -2.3619835
H 1.9527451 -0.054421447 -1.5789158
