9

N -1.1355298 0.09983568 1.0096787
C -0.22423716 0.38277996 -1.1696244
C -0.077592336 0.021193678 0.1503503
N 1.6663296 0.35426933 -2.6702914
N 0.8415084 0.3391413 -1.9009153
O 1.1081425 -0.36037046 0.6529315
H -2.021635 0.26246268 0.5576003
H -1.1873356 -0.5701667 1.7678499
H 1.0303494 -0.5291454 1.6024207
