9

N -0.88740146 -0.57201844 -1.2277343
C 0.23429047 -0.14553253 -0.5530609
C -0.055876393 0.36990434 0.78866404
N 0.95795923 0.80348295 1.4860487
N 1.8378853 1.1738942 2.085593
O 1.3486605 -0.15932664 -1.0408312
H -0.6972683 -1.0926838 -2.0713024
H -1.7055924 -0.8463321 -0.70801705
H -1.0326571 0.46861172 1.2406408
