9

O -0.29101974 1.1840338 -1.1759917
C 0.20809323 0.31878832 2.1494098
N -1.2868919 -1.7608464 -1.0017071
N -0.24208254 -1.1381929 -0.96556944
N 0.17468163 0.25119254 0.90344
C -0.096684285 0.16613097 -0.3205123
H -0.35646406 2.0132082 -0.68066645
H 1.2502359 0.43450633 2.4938939
H 0.64013183 -1.4688208 -1.4022967
