10

N 0.15222226 -0.571174 1.2028747
C -0.15365651 -1.2214112 0.09180604
C 0.5654484 0.83664113 -0.29074547
O -0.97646755 0.8930236 -0.82692695
C 0.13061048 -0.38463956 -1.0705353
N 0.63465804 0.68567145 1.0601237
H -1.0108907 1.2274469 -1.7267138
H 1.0613967 1.702543 -0.718201
H 0.055094782 -0.9086844 2.1516044
H -0.45841593 -2.2594168 0.12671417
