10

C -0.46363217 -1.2191141 -0.3751499
C 0.31003344 -0.11321231 0.059044763
O 1.4861976 -0.5419557 0.36063427
C -0.017780358 1.3353194 0.16380252
H 0.8938409 1.9394197 0.15716691
H -0.64605784 -1.9308128 0.43309623
H -0.54591936 1.5062028 1.1070702
H -0.6820009 1.6371598 -0.6503157
H -1.3253862 -1.0822058 -1.0273631
H 0.99070466 -1.5308006 -0.22798637
