11

N -0.2236365 1.1655461 -1.1894166
C -1.1979247 0.7966893 -0.26269734
C 0.44073886 -0.20444681 0.9262208
N 0.7398685 -1.4527991 1.283065
C 1.0097333 0.64366305 -1.3027973
N -0.867924 0.028314037 0.71701306
H 0.90547353 -0.43365002 -1.0796394
H -0.37258676 2.0852334 -1.5984771
H -2.18077 1.252313 -0.33543092
H 0.059362646 -2.2073257 1.3122904
H 1.687665 -1.6735371 1.5298698
