11

N 0.61773048 -0.29876194 1.61306991
C -0.65490072 -0.53968252 1.86555031
C -0.57694969 0.89247576 -0.92435201
N -1.09850677 0.07232642 -1.84139390
C 1.27473115 0.22255960 0.44929350
N 0.66570008 0.64161301 -0.57854591
H 1.27142949 -0.47712134 2.37013590
H 2.36087910 0.27617063 0.52212758
H -1.20581462 -0.30751070 0.93272034
H -2.02303632 0.26743455 -2.19616122
H -0.63126203 -0.74950340 -2.21244470
