9

O -1.3226898 -0.6579297 0.8850779
C -0.5993484 0.29776442 0.15486775
C 0.86001766 0.19388816 0.3361443
C 2.043432 0.075203136 0.5059748
C -0.9277923 0.2333109 -1.2962502
N -1.2016364 0.15023641 -2.4141617
H -1.0033514 -1.5372827 0.64281225
H -0.9448689 1.2673419 0.52791035
H 3.0962377 -0.022532407 0.6576248
