9

O 2.14635570 0.60116996 0.55353824
C -1.18355051 -0.52349903 0.16401103
C -1.87373448 -1.45382571 0.48943774
C 1.06161274 0.56192313 -0.18740442
C -0.36710811 0.61249940 -0.20749858
N 0.65313830 0.43279076 -1.36753872
H -2.48269931 -2.28606570 0.76961192
H -0.87355056 1.57791838 -0.19243066
H 2.91953638 0.47708892 -0.02172630
