9

O 0.9741111 -0.28576723 1.6758965
C -0.34761763 -0.53098536 -2.2000818
C -0.60903656 -0.13508132 0.3649842
C -0.47135374 -0.3515103 -1.0142994
C 0.10998212 0.8760832 1.0863754
N 0.10967014 2.0717008 1.2272768
H -0.2294866 -0.6886888 -3.250737
H 1.8309113 -0.24378079 1.2177109
H -1.36718 -0.71197015 0.89287454
