11

C -0.76447268 0.81794707 1.65029153
N 0.38678321 -0.00623682 1.33404076
C 0.71314317 -0.23012600 0.14571992
O 0.05351479 0.35219871 -0.94692366
C 0.02497883 -0.14812224 -2.17704753
O 0.61944718 -1.34093426 -2.13856246
H -1.31432098 1.19830127 0.78094292
H -0.42169293 1.66153801 2.25627181
H -1.43955672 0.21699209 2.26729093
H 1.56120952 -0.85150638 -0.12422017
H 0.58096647 -1.67005153 -3.04780430
