11

C -0.105735965 -0.47281748 0.5816909
N -0.8905652 -1.083373 -0.1774463
C 1.4320917 1.2757738 0.99732697
O 1.7990551 0.6536889 2.060688
C -1.2143762 -0.5790823 -1.4966973
O 0.5063285 0.7451589 0.21770911
H -0.7157808 0.36130065 -1.7579976
H 0.14205018 -0.82700396 1.5764548
H -2.2974524 -0.44424394 -1.5511158
H 2.2831836 1.716249 1.7759676
H -0.93879807 -1.3456506 -2.2265801
