12

N -0.09525526 -1.77033837 0.68726422
C 1.06674888 1.23205873 0.28747645
O -1.56154378 -1.09315335 -0.91003728
N 0.15710636 0.31571700 -0.32764078
C 0.39160939 1.52471170 -1.04275871
C -0.48238333 -0.78079511 -0.16512350
H -0.84161042 -2.27687126 1.13434987
H 0.70233295 1.60166902 1.25273803
H -0.46963987 2.19460808 -0.92836652
H 2.12159035 0.96053852 0.27926240
H -1.65485876 -0.38957839 -1.57314810
H 0.66590348 -1.51856658 1.30598353
