10

N 0.40647478 -0.25282489 2.77829558
C -0.84178737 -0.23254787 -0.58954453
C 0.43745328 -0.45527547 0.18572141
C 0.42309203 -0.34511467 1.62577075
C 0.24788844 0.78591694 -0.65700907
H -1.73055821 0.00936022 -0.01565611
H -1.01048499 -0.87942838 -1.44437992
H 1.11960049 -1.21075947 -0.19463165
H 0.84538336 0.85739543 -1.55976634
H 0.10293792 1.72327806 -0.12880009
