10

N -1.4745581 1.7761759 -0.12143732
C -0.9855177 0.89861035 -0.7985147
C 0.6588811 -0.71469104 0.13544399
C 0.11778395 -0.059216037 -0.9856426
C 0.5725838 -0.17476428 1.3801565
H 1.3465734 -0.363069 2.1195078
H -0.23176377 0.49014878 1.6878742
H 0.30688238 -0.41118035 -1.9958847
H -1.6145291 0.1286606 -1.3820708
H 1.3036641 -1.5706749 -0.03943198
