10

O 0.64670044 0.52032226 1.69884
C -0.84194756 -0.5447989 -0.51773864
N -0.58370745 0.6556864 1.467744
C 1.3978254 -0.19346872 0.22415885
C -1.5037379 0.46964657 0.7089739
N 0.4494711 -0.061649136 -0.7177854
H -1.4717524 -0.46635565 -1.3987007
H -0.85494465 -1.5201207 -0.04248881
H 0.5503918 0.6141778 -1.4758831
H 2.2117012 0.5265603 0.05288006
