10

O 1.6641383 -0.1336793 -1.4442921
C 1.1611713 0.78816503 -0.84364027
N 0.27375844 0.64956415 0.18681373
C -0.21346481 -0.6562579 0.5743661
C -1.6486377 -0.8155269 0.28440797
N -2.7798924 -0.920895 0.075334504
H 1.3840898 1.8484035 -1.0595633
H -0.15260905 1.4729033 0.58453184
H 0.35677552 -1.3916088 0.0013429711
H -0.045329046 -0.84106773 1.6406983
