10

O 0.9215509 2.917143 0.6455476
C 1.049263 1.7599697 0.4831142
N 1.3139759 0.5905945 0.29712301
C 0.6241589 -0.6615288 0.20265608
C -1.7762662 -0.77732056 0.122722074
N -0.65080523 -0.53559357 -0.5044684
H 1.2640047 -1.3749411 -0.32784954
H -2.5749898 -0.634499 -0.6397955
H 0.38107815 -1.0454919 1.1960506
H -0.55197036 -0.23833236 -1.4751004
