11

N -0.8885725 -1.7771344 0.43483472
C -0.47481728 0.2437809 -0.9167314
C -0.27781072 -0.68298304 0.2656444
N 0.46375564 1.3123627 -0.58198506
C 1.155441 1.1593484 0.5541825
N 0.69520056 -0.037680537 1.0409678
H 1.0444857 -0.42273042 1.9048911
H -1.5101858 0.5943544 -0.97280264
H 0.61103386 2.1153972 -1.1684045
H -0.5998455 -2.244895 1.2936184
H -0.21868488 -0.25981984 -1.8542155
