12

N -0.82797956 -1.4038016 0.27423447
C 0.4263155 0.7056223 0.5366172
O 0.06555081 -2.5845194 -1.5845445
N 0.83711964 0.6497479 -0.8577761
C -0.8993918 -0.033242006 0.7211376
C -0.33199397 -1.9212054 -0.70574397
H 0.308809 1.7296523 0.92990345
H 1.8151264 0.89816976 -0.9686186
H -1.6940365 0.4884579 0.1685075
H -1.1833723 -0.023050878 1.7787446
H 0.2892372 1.287644 -1.428674
H 1.1946154 0.2065251 1.1362127
