12

N -0.28888288 -0.83963245 1.7687913
C 0.09984694 0.28999487 1.0871441
O 0.8525601 1.1270547 1.5354947
N -0.49640575 0.37686732 -0.18333688
C 0.2688368 0.9379906 -1.2733623
C -0.07096941 -0.5110757 -1.2568911
H -1.142322 -1.2915434 1.4771688
H -0.10694889 -0.8159681 2.760299
H -0.2769729 1.6164227 -1.9242986
H 1.2971992 1.2168736 -1.0587723
H -0.86898994 -0.8950369 -1.8898678
H 0.73304874 -1.2119472 -1.042369
