10

N -1.5377663 -1.4212308 0.7495551
C -0.67994773 -0.6410787 0.26706892
C 0.14293031 0.33400157 1.0099471
C 0.92389566 0.9650903 0.13792425
C 0.638949 0.42053366 -1.2162379
O 1.105419 0.6913803 -2.2799976
O -0.34255075 -0.54899204 -1.0705564
H -1.9683669 -1.9928446 0.02329558
H 0.05856408 0.45027038 2.081458
H 1.6588737 1.74287 0.29754266
