10

N 0.29129976 0.37274164 1.9278107
C -0.24974307 0.8491049 0.8110752
C 0.45962575 -0.62274534 -0.98584014
C -0.7910017 -0.5127744 -1.4811715
C 0.8489467 0.26778823 0.053231947
O -1.7835706 -0.54415804 -2.0657232
O -1.3611579 1.1542339 0.39050415
H 1.1159731 -1.3490713 -1.454305
H -0.41892952 -0.07505962 2.5222735
H 1.8885576 0.45993984 0.28214467
