10

O 1.2543669 -1.3856103 0.98782307
C 0.3586526 -0.94754976 0.013294385
C -0.020225786 0.49937382 0.22172864
O 0.4200994 1.1464673 1.1485425
C -0.9791581 1.1507895 -0.7577155
O -1.4497806 0.55744433 -1.6928028
H 1.4005716 -0.6427049 1.5900128
H 0.7839621 -1.0451393 -0.9972157
H -0.5664524 -1.5451516 0.013259071
H -1.2020355 2.2120807 -0.52692664
