11

O -1.1212364 1.2509159 -0.48775247
C -0.6154001 0.7310994 0.7167972
C 0.46284553 -0.29806414 0.45427507
C 0.42675734 -1.1363623 -0.73960125
O 1.2833085 0.0066601275 -0.66956353
H -0.34505236 1.4291136 -1.0401815
H -0.19833578 1.5251647 1.3572196
H -1.4484026 0.26956752 1.2560949
H 1.0123948 -0.65034264 1.3274635
H -0.4040563 -1.034042 -1.432841
H 0.9471775 -2.0937104 -0.7419104
