12

N -0.2684073 0.34443387 -0.35753098
C 0.8620154 0.9609178 -1.0981137
O 1.0354891 -0.20006983 1.4770769
N -1.1952575 -0.7577011 1.4514515
C -0.043763712 -0.2185217 0.93550986
C 0.42683625 -0.3155628 -1.7127007
H -1.0697124 -1.2868872 2.3038292
H 1.0615839 -1.093641 -1.2485195
H 1.7309208 1.0722909 -0.44913822
H -1.200898 0.6907268 -0.539986
H -1.896636 -1.0923643 0.8092825
H 0.5578295 1.8963786 -1.5711607
