12

N -1.0512125 0.6072015 1.6163946
C -0.23095961 -0.22689722 0.9058279
O -0.06907896 -1.4041852 1.1325219
N 0.42370525 0.4657949 -0.15649368
C -0.17606048 -0.024500417 -1.7577795
C 1.1417822 -0.3374551 -1.1457151
H -0.8763774 -0.8270449 -1.4858452
H -0.8965896 1.603127 1.5761733
H -0.19139303 1.1011093 -0.8611154
H 2.0352595 0.15870312 -1.5206903
H -1.4253863 0.2287955 2.471244
H 1.3163111 -1.3446482 -0.77452254
