12

N -0.69764112 -0.65861594 1.78577288
C 0.08158898 0.10389682 0.95257249
O 1.05406950 0.74183426 1.27774846
N -0.40236650 0.06472947 -0.39040604
C 0.31796522 0.81040410 -1.45410818
C 0.47869590 -0.65580031 -1.59871480
H -1.19389103 -1.44290427 1.39214853
H -0.32868145 -0.77644302 2.71976046
H -0.38158573 1.32478974 -2.11548954
H 1.06352277 1.47607971 -1.01868922
H -1.39601649 -0.08468243 -0.50478833
H 1.40433994 -0.90328819 -1.04580675
