11

C 1.08216838 -0.75801100 -1.50159088
C 0.29301778 -0.24172648 -0.56215244
C 0.40850632 -0.23807349 0.89175060
C -0.67555535 0.38534809 1.36360356
N -1.56289483 0.73074991 0.33220849
O -0.87491585 0.42416151 -0.87518606
H 1.22122800 -0.68197715 1.44806194
H 0.84832897 -0.66264259 -2.55439449
H 1.98154214 -1.28758195 -1.20807721
H -1.75489238 1.72951412 0.28114036
H -0.96653348 0.60023891 2.38463613
