11

C 0.6481304 -0.4389527 -1.8405683
C -0.19046122 0.31948698 1.5251018
C 0.76892054 0.269317 0.59582305
C 0.13833135 -0.19037743 -0.636339
N -1.4146006 -0.1569429 1.0301807
O -1.2032505 -0.36423272 -0.36175147
H 1.8191689 0.4979055 0.70433563
H 1.7111614 -0.30427644 -2.005784
H -0.13732132 0.61418784 2.566102
H -2.1669054 0.5272144 1.0846531
H 0.026826186 -0.77332956 -2.6617532
