11

C -0.4650666 0.6201009 -0.3550387
C -0.18740994 -0.13159555 -1.4974644
C -0.9055887 0.041024752 0.8787779
C 0.3148384 -0.12052613 1.4813566
N 1.3409506 0.40042686 0.7187336
O 0.6441826 1.3755398 -0.08392911
H 0.56703216 -0.7215995 2.3473716
H -0.837394 -0.9555906 -1.782132
H 0.37316346 0.3374135 -2.3021908
H -1.849901 -0.42810848 1.1082643
H 1.0051926 -0.4170855 -0.51374876
