11

C -0.18179119 0.009956611 0.09021788
C 0.98999 -1.4267434 0.47281224
N -0.20956779 -1.5340466 0.35399237
C 0.60304064 0.74288094 0.94803375
C -1.1009269 0.43405822 -1.0034043
O 1.5425512 0.16525817 1.5848004
H 0.4203206 1.8136016 1.0807071
H -2.0959456 -0.0036389483 -0.8721849
H -0.7367702 0.14634529 -1.9953107
H 1.9592332 -1.8727841 0.31792274
H -1.1901337 1.525112 -0.9775866
