11

C 0.5090414 -0.96315295 1.501213
C 0.16597034 -0.12577373 0.3188249
N 0.6357578 1.0337715 -0.008950503
C -0.030386358 1.3591956 -1.1804956
C -0.87731737 0.35988283 -1.4992151
O -0.7620433 -0.60615575 -0.54298174
H -0.38675994 -1.1946632 2.0861273
H 1.2139124 -0.4161554 2.1255507
H 0.96297234 -1.9112551 1.1957554
H 0.15182845 2.289192 -1.7014179
H -1.5829756 0.17511417 -2.29441
