11

N -0.63471824 -1.140905 1.0556825
C 0.56751907 -1.06615 0.22822276
C 0.53915614 0.26850188 -0.50309724
N 1.4516053 0.6480146 -1.31225
N -1.225746 -0.022072688 0.81367105
C -0.69109946 0.86617815 -0.032591816
H 1.2402495 1.5700414 -1.6910347
H -1.1697038 1.806406 -0.24807835
H -2.106045 0.13609125 1.2937702
H 1.4529831 -1.1571879 0.8670188
H 0.5757998 -1.9089177 -0.47131333
