11

N 0.67321391 1.56136463 -1.16533445
C -1.01755584 -0.13045875 -0.42012615
C 0.23358801 0.59443455 -0.45604124
N -0.87986471 -1.04445428 0.54768097
N 0.21377966 -1.13012136 1.22316024
C 1.04514256 -0.07798756 0.64221044
H -1.92334516 -0.04323840 -0.99585462
H -0.02751945 1.86431199 -1.84022570
H 1.96535293 -0.52278695 0.24845531
H 1.32978264 0.63276887 1.42591966
H -1.61257457 -1.70383262 0.79015536
