10

N 1.26625083 -1.49499434 -0.26093149
C 0.88054623 -0.25935649 0.15415747
O -2.20313660 1.43870621 0.00805050
C -0.94010527 1.08167673 0.22353946
O 1.60727148 0.53164607 0.72143727
N -0.48806820 -0.03985858 -0.16444406
H 2.23201563 -1.75134935 -0.15434584
H 0.63687087 -2.05996935 -0.80505237
H -0.36786136 1.84110155 0.75306262
H -2.62378349 0.71239762 -0.47547345
