10

N 0.82500106 -1.507672 -0.4508233
C -0.20290826 -0.64698017 -0.36263523
O -1.3328847 -0.814722 -0.78280854
C 0.20346326 0.64738196 0.36248034
O 1.3324051 0.81504977 0.7837578
N -0.82560647 1.5080957 0.44948083
H 1.7130703 -1.2311307 -0.05974526
H 0.70476246 -2.3981245 -0.904793
H -0.70415264 2.39689 0.90670973
H -1.71315 1.231212 0.05837673
