10

O 1.5035514 -0.901212 1.4230434
C 0.62118214 -0.40412375 0.5630302
C -0.6222802 1.3205249 -0.23607838
N -1.2255447 0.6458202 -1.1838416
N 0.29171488 0.8667301 0.65283936
C 0.061781827 -1.262856 -0.43550166
N -0.8097128 -0.6494141 -1.2300204
H -0.69288343 -1.8084493 -1.4164658
H 1.766058 -0.17767787 2.0124364
H -0.89386696 2.3706582 -0.14944158
