10

O 1.447768 -1.2697943 0.8703936
C 0.5485721 -0.4543545 0.32285997
C 0.8837074 0.895971 0.084767714
N 0.005181436 1.709711 -0.45408088
N -1.2067399 1.2579983 -0.7783415
C -1.4660981 -0.014518535 -0.53431374
N -0.63975835 -0.91976714 0.010991412
H 1.0284904 -2.141854 0.9505856
H 1.8587658 1.2988595 0.33258796
H -2.459889 -0.36225116 -0.80545026
