10

N 0.560359 -0.5932843 -0.6186385
C -0.4180269 -1.0099072 0.2336953
C -0.8440467 0.054234296 0.9846167
C 0.7417952 0.7781584 -0.4015525
C -0.070360675 1.2442948 0.6978762
H -0.7512265 -2.041272 0.21528296
H -1.625403 -0.00054201455 1.7337946
H -0.21667176 1.4572277 -0.7046826
H 1.0133375 -1.1616006 -1.3151094
H 1.6102439 1.2726907 -0.8252827
