9

O -0.6587292 -1.9527647 1.9431398
C -0.40870655 -1.6398307 0.81259036
C -0.10850966 -0.19143125 0.4300462
N 0.45747092 2.3132665 -0.48215893
C 0.37507865 1.2164518 -1.033568
N 0.15177049 -0.049931977 -0.94343245
O -0.098506816 0.7149687 1.2352773
H 0.6597359 1.934996 -1.9233007
H -0.3696038 -2.3457239 -0.038593393
