9

O 1.266743 1.3914472 -2.4083295
C 0.70935565 0.5014886 -1.8335292
C 0.26324672 0.6541549 -0.37164375
N -0.7064969 -1.2696661 2.3524194
C -0.58217806 -0.81757873 1.2417803
N -0.36606324 -0.5328656 0.05690478
O 0.41810316 1.6525905 0.26972637
H 0.47634315 -0.4818496 -2.2833104
H -1.4790534 -1.0977212 2.975982
