9

O -2.574433 0.6725511 0.29381004
C -1.6286912 0.09384384 0.7622738
C -0.3013345 0.044470962 0.096447304
N 0.7640502 -0.5486225 0.54245085
C 1.6591291 -0.27718455 -0.45518526
N 1.18224 0.42688754 -1.4391459
O -0.1299735 0.64761484 -1.0783836
H -1.6589993 -0.44842753 1.7239599
H 2.6880124 -0.6111338 -0.44622713
