9

O -2.5755596 0.6755172 0.2944043
C -1.6301695 0.097360246 0.76269174
C -0.3008907 0.04471349 0.09534993
N 0.762954 -0.5490827 0.5435519
C 1.6586637 -0.28021827 -0.4561257
N 1.1844636 0.4236016 -1.4401332
O -0.12783182 0.64679736 -1.0774641
H -1.6579888 -0.43993556 1.7261856
H 2.6863594 -0.61875343 -0.44846037
