10

O 0.7112949 2.115267 -1.2114836
C 0.21551375 0.26454753 0.51111424
N -1.590991 -1.2916046 -0.1452321
C 0.6514293 1.0775782 -0.62906206
C -1.1339394 -0.38798624 0.6112802
N 1.0665517 -0.21694344 -0.62697595
H 0.70780665 0.47655818 1.4614
H -0.9075266 -1.5453979 -0.8620236
H -1.7597121 -0.019055191 1.4295553
H 2.0395727 -0.47296402 -0.53857285
