11

O -2.20663263 -0.24070516 -0.31246650
C -0.10523100 1.01022764 -0.51244391
C -1.01904353 -0.15362619 -0.12716114
C -0.11385219 -1.18686420 0.54196327
C 1.21426642 0.52279855 0.01950610
N 1.22978044 -0.62167747 0.57179470
H 2.13043816 1.10767758 -0.06070176
H -0.10057966 1.16341176 -1.59721211
H -0.12323108 -2.13191550 -0.01576639
H -0.46202859 -1.41953876 1.55513853
H -0.44388627 1.95021204 -0.06265047
