12

O 1.0455463 -0.3164622 -0.6322377
C 0.70135266 0.58029443 0.4103631
C -0.065719925 -1.1344332 -0.91282696
O -1.1901543 -0.49049193 -0.37145174
C -0.69398105 0.092733726 0.8213901
O 0.74521977 1.8939188 -0.04285496
H -0.63568676 -0.6568231 1.6268502
H 1.439472 0.5119351 1.2157614
H -1.3515813 0.9119187 1.11924
H -0.2040768 -1.2315717 -1.993293
H 0.07831896 -2.1245782 -0.45326823
H 0.13129087 1.9635593 -0.78767246
