11

N -1.5154321 -1.7281998 1.1848848
C -0.71558404 -0.7580986 0.584602
C -1.6292588 -1.2458884 -0.26884502
C 0.6207054 0.712659 -1.3282243
C 1.003625 0.7522909 0.024523025
O 0.29255986 -0.066405274 1.0144975
H 1.1959409 1.3339205 -2.0089276
H -2.0572302 -1.3456359 1.9514134
H 0.9401129 1.775763 0.4249912
H 2.0515122 0.44524595 0.15121548
H -0.18695107 0.124348536 -1.7301304
