10

C -0.9915607 0.38495588 -1.311969
O -0.538044 -0.39378816 -0.19274075
C 0.52331644 0.09552314 0.43317568
O 1.1191397 1.1054914 0.1447589
C 0.9618066 -0.7654295 1.6132898
O 0.40631276 -1.7747597 1.9482311
H -1.8494217 -0.15629618 -1.7067399
H -1.2812179 1.3865258 -0.98461354
H -0.20229252 0.46494716 -2.064112
H 1.8519617 -0.34716988 2.1207197
