10

C -1.00891105 0.43428812 -1.37020541
O 0.14005352 1.17264633 -0.88467723
C 0.85957618 0.80522185 0.13257748
O 0.31967949 -0.35259356 0.63621871
C 1.00793676 -0.84087998 1.72536463
O 0.66323754 -1.84016150 2.27340468
H -1.34827870 1.00336652 -2.23419420
H -1.78353806 0.39197246 -0.60162337
H -0.71279609 -0.57695708 -1.66125155
H 1.86304079 -0.19690319 1.98438625
