12

N 0.2676862 -0.29356197 -1.0687462
C -1.4683603 0.18947221 0.34284478
N -0.29752254 0.2866988 1.0562626
C 0.6409919 -0.009874686 0.16196652
O -1.904692 -0.3705947 -1.9957317
C -1.0829909 -0.16337132 -0.942362
N 1.8571715 0.11168977 0.93968254
H -1.339375 -0.6181441 -2.738343
H -2.4485898 0.36489192 0.7581808
H 2.3810894 -0.74863076 1.0736877
H 2.4814065 0.8591897 0.6453488
H 0.9131852 0.39223522 1.7672092
