11

C -2.3703058 -1.5051069 1.6410807
N -1.6670297 0.43023363 0.22772352
C -0.3433826 0.50631946 -0.1994472
N 0.47912762 -0.40734 0.076552436
C 1.8293443 -0.26902148 -0.43077794
N -2.0545876 -0.5897738 0.99346125
H 2.0592487 -1.1322047 -1.0649345
H -2.3152087 1.1954467 0.13346809
H 1.9965943 0.64997804 -1.0118699
H 2.5292404 -0.28920275 0.41110364
H -0.14304146 1.4106716 -0.77636
