11

C -0.76774013 0.7784327 -0.0252277
C -0.5533527 3.1215577 -1.1283729
C 0.4779154 -0.055305943 -0.1699225
O -1.7833405 0.46031737 0.5232452
C 0.3443734 -1.4247293 0.47819224
N -0.6564127 2.0589907 -0.6254568
H 1.3073065 0.5196863 0.26001003
H 0.14346875 -1.3373654 1.5502895
H 0.6936075 -0.13377327 -1.2433767
H -0.47553295 -1.9955661 0.033241138
H 1.2697074 -1.9922448 0.34737858
