11

C -0.7943856 -0.4182175 0.41210976
C 1.1529787 1.1102616 -0.018320525
C -1.5398089 -1.5589374 -0.20311052
O -1.4692912 0.66597885 0.6577361
C 0.4272755 -0.10967771 -0.34982875
N -2.1307063 -2.433556 -0.67204064
H 0.87312037 1.4572405 0.98070025
H 0.77514476 1.88451 -0.7036388
H 2.2276897 1.0109124 -0.1926272
H 0.7376318 -0.6908126 -1.2215611
H -0.2596489 -0.9177017 1.3105813
