11

C -0.43862322 -1.380462 -0.5687764
C -0.5139849 0.015395054 0.03595872
C 0.84200966 0.64463663 0.22613367
O 1.8959405 0.14079185 -0.05755618
C 0.8120896 2.0098815 0.8202767
N 0.7813553 3.0671263 1.2814536
H 0.04922412 -1.3600788 -1.5469939
H -1.4456053 -1.7874956 -0.689715
H 0.13490497 -2.0560422 0.072760694
H -1.0116732 0.008769487 1.0150248
H -1.1056374 0.6974783 -0.58856666
