10

O 0.49083245 0.24538563 1.6962458
C 0.26299024 1.3652643 0.89357233
C 0.02181373 -0.41821364 -0.2892223
N 0.3176178 -0.8315125 0.91335994
O -0.5284707 -1.2094038 -2.4595647
C 0.03702394 1.0340853 -0.4637857
C -0.2284923 -1.4621537 -1.3243979
H -0.8816744 1.4864832 0.648486
H -0.1147176 -2.4989233 -0.95085776
H 0.6230769 2.288988 1.3361642
