10

O 2.27410101 0.77021071 -0.42688014
C 0.27819668 -1.85493828 0.68482997
C 0.04147915 0.58203785 -0.22584558
N 1.22739558 1.33192556 -0.61358736
O -2.32238141 0.89656375 -0.14718925
C -1.23445073 1.32863912 -0.41934209
C 0.11577357 -0.64874099 0.23829049
H 0.28843249 -2.70292383 0.00402253
H -1.07892504 2.34166929 -0.84232124
H 0.41037854 -2.04444329 1.74802239
