11

N 2.0007553 -0.84932995 0.24264205
C -1.3094722 0.9329897 -1.073819
C 0.87925303 -0.28818125 -0.24174774
C -2.0602272 0.15442328 -0.39831057
N 0.08252527 0.18178272 0.7033548
N -1.0868641 0.96407294 0.3872163
H 2.2665792 -0.8857539 1.2232016
H -0.88824975 1.4133269 -1.9353734
H -2.809433 -0.5882343 -0.20037943
H 0.26839516 0.20830727 1.7053338
H 2.656738 -1.2434034 -0.41211838
