11

N 1.0340973 -0.01761284 -1.5530359
C 0.27865866 -0.02590667 -0.375346
C -0.37698328 0.968742 0.32145447
C -0.8744508 0.31686372 1.4719616
N -0.5730587 -0.9692551 1.4944315
N 0.13371353 -1.1563464 0.35879505
H 1.0303231 0.8956532 -1.9852794
H 0.73099154 -0.7071891 -2.2306533
H -0.48358223 2.00564 0.03542867
H -1.4515135 0.7448263 2.280946
H 0.55180424 -2.055415 0.18129754
