10

O 0.24029842 0.7865119 2.04646
C -0.024628574 0.2744427 0.83574414
N -1.1455249 -0.25647274 0.4414026
C -0.9039161 -0.6194438 -0.8735616
C 0.3637852 -0.29837528 -1.2453234
N 0.9344375 0.2866356 -0.118328325
H 1.8652501 0.6550204 -0.015888648
H -0.5704838 0.68087465 2.5644133
H -1.6711676 -1.0927318 -1.468778
H 0.91194975 -0.41646168 -2.1661398
