11

N -1.85591124 0.31956136 0.57462729
C 0.64702534 0.28470180 0.93129888
C -0.58048071 0.09210386 0.11581598
N -0.27240694 -0.26316571 -1.07974973
C 1.17376441 -0.29943942 -1.08968600
N 1.68815431 0.05369682 0.23046839
H 1.54100233 -1.29670988 -1.35878340
H 0.69068979 0.58118631 1.97623193
H -2.02050823 0.15640188 1.55683469
H -2.58559889 -0.03130625 -0.02683821
H 1.57426995 0.40296926 -1.83021943
