11

N 1.0367521 0.13039687 1.7681752
C 0.37392816 0.060940027 0.5401948
C -0.9703606 0.12658875 0.2720696
N -1.0538223 0.06307106 -1.1116252
C 0.2080761 -0.024837293 -1.5847671
N 1.0967627 -0.034593277 -0.6198952
H 2.0087984 -0.12414628 1.6461481
H 0.61385655 -0.42856285 2.494125
H -1.843193 0.22575243 0.8971062
H -1.8971934 0.08823965 -1.658433
H 0.42639542 -0.08284905 -2.643098
