9

N 1.6812581 -2.1286008 -0.5061159
C 0.8281372 -1.3655648 -0.38044143
C -0.6208914 0.07140996 1.152571
C -0.2628422 -0.40944573 -0.22759329
N 0.13908929 0.96706206 0.107005365
H 1.1131693 1.1485351 0.31583494
H -0.28173497 1.6921011 -0.4714731
H -0.9418251 -0.42089108 -1.085195
H -1.65436 0.44539422 1.0954072
