12

C 1.0734665 0.19321392 0.7822624
C -0.31762698 0.5919001 0.3520488
N -1.0171647 1.5499234 0.81002265
N -0.90759015 -0.17381056 -0.6622999
C -0.394021 -1.2481812 -1.3430471
O -0.9966819 -1.8362836 -2.210914
H 1.4164555 0.8612137 1.5761596
H 1.7824078 0.2588968 -0.050344747
H 1.091116 -0.8322509 1.1668601
H -0.5129197 2.0477984 1.5383589
H -1.8408146 0.118546575 -0.9298197
H 0.62337345 -1.5309666 -1.029287
