11

O -1.1803653 -0.7437072 1.2686534
C 0.007913928 -0.41637757 0.5963443
C -0.007937417 0.9945299 -0.0075121266
O 1.1984226 1.3030695 -0.65600294
C 0.30899578 -1.3873516 -0.48405382
N 0.5049088 -2.0955436 -1.3777384
H 1.2766945 0.7485157 -1.4413227
H 0.8091757 -0.47593343 1.335806
H -0.8817949 1.0845703 -0.6753846
H -0.12806506 1.7110431 0.80766153
H -1.9079486 -0.72281504 0.6335493
