11

O -1.8730507 -0.08867853 -0.0971685
C -0.6255637 0.49855056 0.08443445
C 0.27246353 0.074597195 1.2649556
O 1.3673115 -0.18294974 0.33531278
C 0.54131216 0.0025029492 -0.7426195
N 0.6971841 -0.26791793 -1.9580866
H -1.7491667 -0.9448476 -0.5261946
H -0.7515337 1.583802 0.022152942
H 0.5484499 0.8368343 1.9947417
H -0.04913244 -0.8489515 1.7556784
H 1.621726 -0.66294175 -2.1332068
