12

N -2.130185 0.5626698 -0.074700356
C -0.7857528 0.19915998 -0.04019109
N 0.15347815 0.8187711 0.6357079
C 1.3093945 0.15923543 0.30554783
O 2.4939067 0.5401501 0.8299543
C 1.0855796 -0.8685342 -0.5565453
N -0.29951775 -0.8334939 -0.7659465
H -2.2949774 1.3142173 0.583728
H -2.7573235 -0.2083859 0.113466255
H 2.3040328 1.2750536 1.4262619
H 1.7327818 -1.6093626 -0.9946017
H -0.8114174 -1.3494805 -1.4626814
