9

O -1.1582136 -1.2876047 -1.0779809
C -0.3813458 -0.47405 -0.34565172
C 0.47830704 -0.79135686 0.6515771
O 1.0331699 0.3939226 1.0792949
C 0.47228616 1.3322065 0.3149066
N -0.37935767 0.88756394 -0.554384
H -1.6381899 -0.72415143 -1.7006053
H 0.8009483 -1.6933745 1.1449255
H 0.77239555 2.3568444 0.48791814
