9

O 2.0356772 -0.5613054 -0.7968112
C 0.9479252 -0.35905236 -0.35876682
C -1.0329156 -0.7547781 0.5208373
O 0.117892 -1.3706828 0.10570795
C 0.15143411 0.9215959 -0.16765861
N -1.1161139 0.5029349 0.41326487
H 0.6828499 1.6134533 0.4934464
H 0.004567122 1.4297401 -1.1263783
H -1.791316 -1.4219054 0.9163585
