9

O 0.69029605 1.0736419 -0.40385428
C 0.9091215 0.6910077 0.9201891
C -0.15301602 0.13523982 -0.84868234
O -0.96190435 0.23597676 -1.8254676
C -0.39937064 -0.8156393 0.16232328
N 0.2995405 -0.3545466 1.3135439
H -0.47199973 -1.8829569 -0.020971673
H -1.4882447 -0.41839325 -0.7718041
H 1.575577 1.3356696 1.4747236
