11

N 1.08083299 1.77131864 0.67631412
C -0.78246479 -0.12871607 0.50229568
C 0.10275029 -1.21058290 -0.17406121
C 0.35728088 0.85387549 0.22481902
C 0.12576990 0.06781244 -1.05218865
O -1.31885943 0.20760611 -0.82100018
H -0.46231399 -2.03766916 -0.60846571
H -1.48231724 -0.20920175 1.33468438
H 0.86202732 1.98725438 1.64925400
H 0.49708016 0.22246541 -2.06236773
H 1.02021382 -1.52416224 0.33071656
