11

N 0.77071655 2.0008364 -0.40721017
C -0.8361351 -0.03858221 -0.6533813
C 0.1392697 -1.1862112 -0.28261784
C 0.054376423 -0.20153639 0.9151755
C 0.20391273 0.9238118 -0.11085081
O -1.3951682 -0.12566006 0.7030271
H 1.4384031 2.2909856 0.3077194
H 1.0866538 -1.2721119 -0.8210938
H -0.35089082 -2.1452713 -0.10366815
H -1.5301647 0.05552389 -1.4850769
H 0.41902637 -0.30178434 1.9379771
