12

N -0.7474737 -0.16908775 -1.4460942
C -0.12980472 0.26698485 0.8797053
C -1.1971961 0.47138175 -0.19475545
C 0.79889923 1.3331066 1.0976228
N 1.5557399 2.1758802 1.3587259
C 0.21893053 -0.92864835 -1.1792696
N 0.6521485 -0.9476964 0.19795674
H 1.6497488 -0.9805401 0.3801164
H 0.031745773 -1.1786503 1.1016371
H -2.1543438 7.4833144e-05 0.0654854
H -1.39369 1.5343271 -0.3639313
H 0.7152958 -1.5771327 -1.8971994
