12

N -0.43828002 -1.6660222 2.3278883
C -0.3469475 -0.7703948 1.6056772
C -0.25406572 0.3606687 0.66195005
C 1.1516122 0.4803517 -0.005140872
N 1.0073545 -0.07627679 -1.3492951
C -0.238302 -0.24307868 -1.5382774
N -1.0971109 0.14797664 -0.5130064
H -0.5365079 1.274234 1.192639
H 1.4496348 1.5310471 -0.07848356
H 1.9249946 -0.052328926 0.5518774
H -0.66119593 -0.62442833 -2.4630613
H -1.9611862 -0.3617482 -0.39276743
