12

N 0.59788055 -0.28677368 0.86627288
C -0.76474790 -0.74740348 0.72052042
C -0.60553054 1.32751404 -0.46895335
C 0.78548926 0.76342533 -0.13618046
N 1.80346297 -0.20095432 -2.37474286
C 1.35489801 0.25680631 -1.41411068
N -1.38686370 0.42049291 0.03607933
H -1.24319835 -0.92200964 1.68907845
H 1.45173946 1.54916829 0.23200451
H 1.28717525 -1.02377737 0.79176918
H -0.88837021 -1.63798734 0.08946728
H -2.39193486 0.50149916 -0.03120480
