12

O -1.0823634 -1.455827 -0.1149222
C 0.50527793 1.1416886 -0.889955
C -0.22139241 1.0554422 0.4434418
O 0.22774792 0.41167995 -1.8230354
C 0.11981002 -1.3047574 0.5651763
O 0.27553377 -0.03984269 1.1909173
H -0.96685416 -1.0509977 -0.9902864
H 0.9782215 -1.4697839 -0.1074877
H -0.029698739 1.9414091 1.0558832
H 1.3555263 1.8456825 -0.96917117
H -1.2977133 0.95043534 0.25429675
H 0.1359045 -2.0251286 1.3851426
