11

O -0.33860996 -1.1191034 2.0810475
C -0.64639765 -0.64653325 -0.32819104
C 0.06325031 0.4835564 -1.0943005
C 1.0069915 1.2106333 -0.14555995
C -0.10367943 -0.5053334 1.0766732
N 0.82714814 0.5841588 1.0089374
H -0.6301805 1.2281628 -1.5043324
H 0.64855826 0.12743698 -1.9501648
H -1.736515 -0.5590917 -0.30425575
H 1.3206832 0.8456228 1.857662
H -0.41124904 -1.649509 -0.69751596
