10

C 1.0301023 -0.71284753 0.26985407
C 0.221847 0.01251634 1.0958871
N -0.26468092 -0.040534697 -1.4875774
N -1.1241256 0.6996914 -0.7555758
C -0.86543 0.717135 0.5238709
C 0.8170971 -0.7782035 -1.1540614
H -1.5443536 1.3102522 1.1307371
H 0.3790767 0.067368224 2.1697032
H -0.52158487 -0.0075906944 -2.4680223
H 1.8720521 -1.2677866 0.67518497
