10

C 1.1198363 -0.48625764 -0.061165005
C 0.36351165 -0.10931269 1.0199443
N -1.479315 0.6141028 -0.3610563
N -0.6778631 0.2688789 -1.382692
C -0.9291761 0.4300213 0.8172725
C 0.5557357 -0.2766855 -1.3463069
H -1.5428226 0.7182212 1.6675901
H 0.73193496 -0.22067975 2.036631
H 2.106248 -0.92406756 0.048133124
H -0.24808963 -0.01422111 -2.4383507
