11

N 0.3695888 0.61722934 -1.0261647
C -0.68796843 -0.54399854 0.63778776
C -0.8064251 0.05631927 -0.7056765
N -1.9556292 -0.04907196 -1.3097328
C 1.2708349 0.4169625 0.05178871
N 0.507 -0.3481131 1.0853416
H 2.1518834 -0.18286532 -0.21446398
H 1.6131124 1.348799 0.52316475
H 0.8622517 -0.6515352 1.9785633
H -1.4503709 -1.077658 1.1937078
H -1.8742778 0.41393223 -2.2143161
