11

N 0.33285694 -0.36731200 1.14476477
C -0.76106414 -0.59149138 0.49691805
C 1.22536951 0.46182813 0.27702981
N 0.50923946 0.66656757 -0.93109866
C -0.67881002 0.05129841 -0.82949260
N -1.70535436 -0.07525150 -1.62123323
H 1.44403474 1.38843435 0.82589679
H 0.54644170 -0.68881764 2.07596261
H -1.58220600 -1.17252015 0.90093370
H 2.16327193 -0.09499880 0.14583069
H -1.49377974 0.42226298 -2.48551177
