10

C -0.4195431 0.70483315 0.65696865
N -1.9555767 -0.6991797 -0.03220284
N 0.14837594 -0.30084154 -0.27052364
C 1.3787133 -0.3833121 -0.6603124
N -0.84602475 -1.1312212 -0.65474164
N -1.8097023 0.31544447 0.7144391
H 1.6449515 -1.1769104 -1.3462061
H 0.060271222 0.6291933 1.6357931
H -0.2985084 1.7097982 0.24582474
H 2.0970435 0.33219588 -0.289039
