11

N 0.32591367 2.926364 0.44794428
C -0.20944847 1.9082448 0.35175171
C -0.8562923 0.5983141 0.20497411
C 0.008588895 -0.35635924 -0.5972897
C 0.9172193 -1.2892107 0.06648956
O -0.33039096 -1.7195591 -0.46678644
H -1.8257287 0.7342019 -0.28688118
H -1.0483469 0.17373696 1.1962693
H 0.23876417 -0.035182428 -1.6123365
H 1.7994844 -1.649654 -0.45786536
H 0.980237 -1.290897 1.1537302
