10

O -1.43889425 1.15882065 0.94047123
C 0.78542115 -0.14602097 0.40332499
C -0.31586373 0.81701847 0.33089494
C 0.60063337 0.98684197 -0.57930531
N -0.50700034 -1.78088054 -0.46189342
N 0.63434421 -1.52597503 -0.05061143
H 1.56632165 -0.10238194 1.16692513
H -0.50470878 -2.76523936 -0.75982571
H 1.03381232 1.47958461 -1.43121069
H -1.85406579 1.87823200 0.44122976
