10

O -0.46613717 -1.7924562 -1.1149501
C -0.29419124 0.7295247 0.765884
C -0.20229632 -0.5927976 -0.67179394
C -0.7338304 0.6076313 -0.6192426
N 1.7244176 -0.22240865 0.72894776
N 1.0133889 0.71427166 1.17491
H 2.7039132 0.050339703 0.87180597
H -1.3717766 -1.846763 -1.4626095
H -1.0033393 1.0734274 1.5186536
H -1.3701485 1.2792304 -1.1916052
