9

N 1.4152384 1.6616615 -0.49116024
C 0.657134 0.65023214 -0.5898354
N 0.008611786 0.1544293 0.54837495
C -0.7543583 -0.84515977 0.39422968
O -1.4242278 -1.3824248 1.4124508
H -0.9623435 -1.3796523 -0.5376614
H 0.4598393 0.111691535 -1.5332767
H 1.8012004 1.8889896 -1.4043559
H -1.201094 -0.8597674 2.2012339
