9

N -0.73207358 2.08241503 -0.36451741
C -0.09509254 0.99044551 -0.46098566
N -0.34299941 -0.04153606 0.45306058
C 0.30388514 -1.12033814 0.30210069
O 0.13080104 -2.16353919 1.11199363
H -0.43461552 2.71704719 -1.10162783
H 0.66410859 0.78061792 -1.23469019
H -0.54541788 -1.90502582 1.76086731
H 1.05140420 -1.34008627 -0.46620075
