11

C 0.041393537 0.9351716 -1.533323
C -0.8722368 0.4337249 0.8702705
C 0.566095 -1.2611617 1.2033092
N -0.37585384 -0.587752 1.7938298
C -0.07317523 0.26063734 -0.21452428
O 0.8562565 -0.7556689 0.02229405
H -0.07746687 0.2279468 -2.3612688
H -1.467762 -0.2747306 1.8965553
H -0.7491338 1.6851686 -1.5983669
H 1.142016 -2.0979598 1.5713006
H 1.0098673 1.4346238 -1.6500764
