11

C -0.88004136 -0.80059165 -1.1892228
C -0.1258992 -0.06309556 -0.14209531
C -0.26258498 1.1346189 0.46929368
N 0.75993073 1.3036102 1.3965853
C 1.4463068 0.22136182 1.298653
O 0.98346686 -0.6646716 0.3913184
H -1.2593902 -1.7531635 -0.8092453
H -1.7312566 -0.19731683 -1.5182188
H -0.25043178 -1.0104605 -2.0594876
H -1.0169573 1.8924385 0.3167479
H 2.336857 -0.06273009 1.8456714
