11

C -0.27218542 0.28950044 -1.69146263
C -0.60681556 -1.20669076 0.01314637
C 0.06034493 -0.08505627 0.41669476
N -0.78076466 -0.87868942 -1.36289480
C 0.60734181 0.36103978 1.72397405
O 0.26455101 0.83961585 -0.64504198
H 0.39747102 -0.42351544 2.45337995
H -0.25845239 0.78298502 -2.65414848
H -1.24806603 -1.48819927 -2.01793317
H 0.14400909 1.29120636 2.07443524
H 1.69256617 0.51780340 1.68985055
