11

C -1.4702433 0.7954803 -0.45005485
N -0.47937056 -0.08715414 0.12664808
C 0.84216905 0.024087787 -0.12365781
O 1.3837857 0.8446262 -0.8414424
C 1.6732906 -1.025292 0.60923064
O 1.1943984 -1.8620169 1.3286828
H -0.9514181 1.5219747 -1.0787019
H -2.1803648 0.23316234 -1.0665212
H -2.019264 1.3277068 0.3331093
H -0.7515118 -0.83503693 0.7506385
H 2.7585292 -0.9375379 0.41206864
