11

C 0.54487604 2.0083492 -0.9123185
N -0.4081752 -0.29470986 0.8332771
C -0.34322718 -1.6930518 0.40697452
O -0.22415793 2.535479 -1.6625239
C 0.11933267 0.71747094 0.17695405
O 0.75160336 0.47848663 -0.93903154
H -1.352622 -2.1082094 0.35677657
H 0.26411995 -2.279366 1.099641
H 0.109704345 -1.7271109 -0.5859199
H 1.4428179 2.4414923 -0.45904043
H -0.9042719 -0.07883047 1.685211
