17

C -2.40203548 1.26265549 0.07186475
N -1.22097261 0.54818899 -0.37820640
C -0.37273109 0.01568570 0.57404110
O -0.67744573 -0.00809467 1.75961238
N 0.79865893 -0.52084806 0.09013535
C 1.81188392 -0.92617339 1.04216275
C 1.13059300 -0.59735988 -1.31913245
H -2.16921946 2.22423914 0.54840123
H 2.70248846 -0.28607965 0.96958509
H -3.06094198 1.43273883 -0.78244804
H -0.78542939 0.92712788 -1.20658564
H -2.92954381 0.64876701 0.80542517
H 1.39188069 -0.84016602 2.04379830
H 2.11763638 -1.96400112 0.86438219
H 1.62128000 0.31287962 -1.69554510
H 1.81371853 -1.43833381 -1.47694183
H 0.23017963 -0.79122640 -1.91054868
