11

N 0.98353606 1.2150012 0.04699127
C 0.40802768 -0.7229013 -0.6686938
N 0.32531103 -1.9683422 -1.2372789
N -0.7177662 1.4280332 1.7182564
C -0.06902144 0.82527804 0.67405224
N 1.3004435 0.1843415 -0.8471186
O -0.515484 -0.39990884 0.2783125
H 1.0011573 -2.0669508 -1.9825934
H -0.60776526 -2.2354114 -1.5212733
H -0.38206768 2.3702984 1.86081
H -1.7263709 1.3705623 1.6785356
