11

N 0.9606954 -0.7022368 2.242628
C 0.6533163 -0.3373988 1.07903
N 0.68157154 0.767643 -0.9257255
N 1.4183762 0.38367063 0.190292
C -0.41179788 0.12142338 -0.77568257
N -1.4281871 0.0051039667 -1.6725153
O -0.5246436 -0.58436847 0.37985617
H -1.3585337 0.66093075 -2.4352381
H -2.3501232 -0.08270327 -1.2748513
H 0.2118776 -1.229219 2.6799312
H 2.147448 0.99715453 0.5122751
