11

N 0.28264412 -1.0135697 0.9128329
C -0.5345497 -0.0143054165 0.85523045
N 1.2566925 0.22322632 -2.0443146
N -1.471021 0.3768085 1.7679856
C 0.45643172 0.014256703 -1.0195755
N 0.84626716 -1.041924 -0.358551
O -0.4981575 0.6933509 -0.3322796
H 0.8679357 0.46425438 -2.94677
H 1.7224534 -0.9486265 -1.3638848
H -1.5490423 1.3761294 1.8924187
H -1.3796542 -0.12960061 2.6369076
