11

N 0.24813594 -0.42524746 1.2975202
C 0.5254845 0.73772085 -0.427601
N -1.1400968 -1.9809659 0.79185814
N 1.0598359 0.5418719 0.7323605
C -0.61998963 -0.8401442 0.40636656
N 0.9389274 1.5734067 -1.4225315
O -0.56089693 -0.071178444 -0.71226346
H -2.106112 -2.2122552 0.5880709
H -0.18559285 -1.54906 1.8027813
H 1.6463884 2.2208207 -1.1081684
H 0.19391637 2.0050313 -1.9483932
