11

N -0.47711677 0.15643038 -1.48007908
C 0.61923945 -0.10205609 -0.86159813
N 1.86416401 -0.34021351 -1.38571452
N -1.42476668 0.42574672 -0.48431276
C -0.80398173 0.30160814 0.63469687
N -1.25929554 0.55490068 1.90082407
O 0.50717061 -0.04208957 0.49408011
H 2.36774757 -1.09373483 -0.93713971
H 1.81476995 -0.44973097 -2.38948326
H -2.26013508 0.69330675 1.90735922
H -0.94779570 -0.10416772 2.60136727
