10

O 0.7406971 -1.5850698 -0.3391219
C -0.9352949 0.4980576 0.23927654
N 1.288512 0.71277463 0.0036408599
C 0.4474281 -0.30697733 -0.5045518
C 0.24915108 1.0570825 0.7701066
N -0.63941306 0.11393913 -1.2059643
H 1.5831463 -1.6044369 0.1459677
H 0.33481988 1.6551247 1.674846
H -1.2270036 -0.66992766 -1.480565
H -1.8420433 0.12943299 0.6963651
