10

O -1.9638921 0.98978865 -0.18819202
C -0.8059914 0.3512557 0.040900435
N -0.47576654 -0.2980183 1.1175603
C 0.7998577 -0.7646717 0.858097
C 1.2164823 -0.38353676 -0.38100135
N 0.15665624 0.34751746 -0.90912056
H -2.4899766 0.8651906 0.61433136
H 1.3372598 -1.3499792 1.5904143
H 2.1293569 -0.5481062 -0.9323708
H 0.09601424 0.7905596 -1.8106186
