10

O -0.80490888 0.20174536 1.71013747
C 0.17064534 0.55206013 -0.69974116
N 0.73361908 -1.21489005 0.33420218
C -0.31531403 -0.16516656 0.50490674
C 1.16113831 -0.58047308 -0.70730281
N -1.15382031 -0.17939338 -0.65240569
H -1.88682805 0.51727984 -0.48581942
H -0.08131791 0.17412552 2.35101836
H 1.93871898 -0.90477604 -1.39080342
H 0.23806803 1.59948809 -0.96419219
