11

C -1.27236474 -0.47894530 -1.27567745
C 0.49242721 -0.51184370 1.19389327
C -0.35181943 0.61641969 -1.00979151
O 1.03338242 0.32121468 -1.09866910
C 0.50584308 0.60703568 0.18921056
N -2.02622834 -1.33111127 -1.47786239
H -0.65429404 1.56485980 -1.45007490
H 0.13667226 -1.44265542 0.74406140
H 0.79629693 1.58895933 0.56732881
H 1.50053883 -0.67952122 1.58322579
H -0.16045405 -0.25441279 2.03435521
