11

C 1.2982285 0.6389845 0.5743797
C 0.10322622 -0.29224187 0.41209942
C -0.7470426 0.05019906 -0.7834901
O -0.545455 0.94749784 -1.5577813
C -1.9304451 -0.83258337 -0.9755708
N -2.845158 -1.5212654 -1.1160723
H 1.9489092 0.60062706 -0.30349106
H 1.8803202 0.34474158 1.4521121
H 0.97477853 1.6754535 0.703057
H -0.5517488 -0.27218822 1.2937106
H 0.41438696 -1.3392252 0.30104643
