11

O -1.2845123 -1.964034 0.27174455
C -1.0587133 0.48339465 0.6917927
C -0.709125 -0.7273508 0.22879152
C 0.111458905 1.3229183 0.23307523
C 1.0799091 0.4367565 -0.4941835
N 0.55173206 -0.7473025 -0.46725875
H 2.0309854 0.6364977 -0.97181433
H 0.6297596 1.81352 1.06835
H -0.1973058 2.1421025 -0.43165776
H 0.9593425 -1.5809855 -0.8743631
H -2.1135309 -1.8155164 0.74552375
