11

O -1.0863614 -1.0847502 1.7312407
C 0.67653936 1.0786825 -0.47370154
C 0.112596214 0.9434588 0.92460036
C 0.56230855 -0.1535473 -1.1880368
C -0.4035126 -0.33721435 0.8256772
N -0.11380023 -0.96737474 -0.3654225
H 0.8956301 -0.4715825 -2.165365
H -0.3871312 1.5362391 -0.4338761
H 1.3636825 1.8677679 -0.7620212
H -1.1911592 -0.5111951 2.5010967
H -0.4287923 -1.9004843 -0.5941919
