11

O 0.18772842 -1.908661 1.1281092
C 0.02799314 -0.76545995 0.4130868
C -0.87531996 -0.36796045 -0.53841174
C -0.5014699 0.96525127 -0.90807235
C 0.5962469 1.3149608 -0.17543657
N 0.9154036 0.24085116 0.63703245
H -0.50772375 -2.5209045 0.86377877
H -1.7005012 -0.94911736 -0.92571694
H -1.0025562 1.5831504 -1.6391455
H 1.1832217 2.2196083 -0.1498129
H 1.6769768 0.18828131 1.2945889
