12

O -0.542373 1.1839489 -1.2549845
C -0.07323229 -1.1840976 -0.5446232
C -0.7797064 0.16173722 -0.3367689
O 0.5222471 -1.1054486 0.7706239
C 0.048806947 0.21769534 0.9675636
O 1.061776 1.1769911 0.916008
H -0.47938716 0.33770424 1.9189808
H 1.8733686 0.719536 0.65710986
H 0.6842873 -1.163953 -1.3379011
H -1.8562119 0.07107963 -0.17163101
H 0.24326706 1.6573455 -0.9384045
H -0.7028423 -2.0725389 -0.6459728
