12

O 1.0430723 1.0995058 -1.0130515
C 0.6008007 1.01523 0.31833893
C -0.44760787 -0.08921308 0.44812116
O -1.4924889 0.18513489 -0.44613433
C 0.15594615 -1.4359329 0.113934055
O -0.33044577 -2.1428838 -0.7354699
H 0.23983826 1.1353952 -1.5523244
H 0.16254178 1.9593358 0.67037493
H 1.4744192 0.79200906 0.94196033
H -0.80780286 -0.13137043 1.4900472
H -1.6424637 -0.64158475 -0.93460035
H 1.0441903 -1.7456259 0.69880384
