12

O -1.3325795 0.41642267 -0.29731688
C 0.8489566 0.09082269 -0.19134621
C -0.16438122 1.1946727 0.1406344
O -0.7884416 -1.6054895 0.32797465
C -0.33035094 -0.8193701 -0.6237452
O 1.5503749 -0.44755733 0.8854413
H -1.5094401 -0.48365942 0.4418327
H -0.096634075 2.0930367 -0.4738139
H -0.44779554 -1.1138684 -1.6707228
H -0.22997391 1.444221 1.2014737
H 0.95256627 -1.1216178 1.2509588
H 1.5476992 0.35238674 -0.9913706
