11

C -0.11015573 0.10711441 0.3446351
C 0.6385484 0.0045548724 -0.8602858
O 2.007169 0.7293567 -0.54043317
C -1.428198 -0.60952836 0.4585997
O 0.32033318 0.8330159 1.2606395
H 1.7460518 1.0444658 0.3876153
H -1.3765389 -1.3086605 1.2992175
H 1.2602099 1.1681482 -1.2212052
H 0.84018564 -0.9350221 -1.3602924
H -2.2122774 0.11924257 0.68502647
H -1.6853281 -1.1526872 -0.45351672
