11

C -0.41129047 0.9179228 -1.1505235
C -0.073618084 -0.33259246 -0.37798223
O -0.054495726 -1.4363692 -0.8815031
C 0.27903995 -0.18627729 1.0919102
O 0.65112424 -1.4054253 1.6513687
H 0.51636314 1.3383164 -1.5562255
H -0.87013376 1.6822747 -0.5140774
H -1.0703712 0.6791373 -1.9885553
H -0.5990268 0.24209385 1.603466
H 1.0858512 0.55779445 1.1834388
H 0.54655755 -2.0568757 0.9386835
