12

O 0.8706187 1.9632356 -1.2808442
N 1.0142412 1.4088835 -0.0052544065
C 0.31140253 0.36535516 0.104261585
C 0.13376658 -0.6084307 1.2418516
N -0.5605508 -1.5149401 0.29447073
C -0.58595204 -0.4804995 -0.76992244
H 1.4648076 2.723559 -1.2394112
H -0.49227598 -0.21610618 2.0529597
H 1.0496455 -1.0273731 1.6699322
H -1.4836369 -1.7883639 0.6124224
H -1.5636265 -0.018853 -0.9575631
H -0.15844007 -0.8064668 -1.7229027
