11

N 1.6323056 -0.461868 -1.0648257
C 1.8845494 0.34696183 -0.0054088496
C 0.32909584 -0.64119947 -0.9733713
N 0.8350473 0.6714334 0.72105664
C -1.5227122 0.12713858 0.5705774
N -0.16352466 0.02427478 0.08355745
H 2.8748615 0.7100909 0.23842698
H -1.8311028 1.1747273 0.5663403
H -0.2828659 -1.2339499 -1.6400001
H -2.1779401 -0.4521959 -0.084333904
H -1.5777143 -0.26541373 1.5879811
