11

N 0.75524458 -0.01279462 1.04761223
C 1.34508160 -1.14864611 0.73709289
C -0.96045406 1.31793016 -0.03103529
N -0.10225309 0.15336333 0.01831405
C 0.01637944 -0.87136138 -0.84104322
N 0.92886161 -1.72442991 -0.41851544
H -1.61298710 1.32915327 0.84435463
H -1.56416862 1.27416353 -0.94069130
H -0.34626625 2.22084541 -0.04010297
H -0.56887222 -0.95793506 -1.74670855
H 2.10943428 -1.58028876 1.37072235
