11

N 0.29563627 0.30588242 1.9997637
C 0.11359835 0.10514841 0.7640507
C -0.63708687 0.8452062 -0.34267518
N -0.4282263 0.07999868 -1.574765
C 0.29204878 -0.9168302 -1.245827
N 0.6492229 -0.9902538 0.08861979
H -0.17033051 1.1607114 2.3004584
H -1.7081861 0.91385114 -0.11947096
H -0.25966325 1.8677837 -0.46228886
H 0.626703 -1.6843766 -1.9382098
H 1.2262839 -1.6871215 0.5303436
