10

O -1.7483048 0.22931029 -0.95146585
C -0.6073675 0.2070271 -0.20729408
C 1.0126259 -0.5132597 1.051503
C -0.41129035 -0.35124943 1.1198596
N 0.60837424 0.1062754 -0.93690276
N 1.5801475 -0.25206736 -0.13309902
H -0.47420767 1.142255 0.4642056
H 0.8170884 0.45616788 -1.8599449
H -2.4352267 -0.16540365 -0.3971807
H 1.658161 -0.8590554 1.8503191
