10

O -1.2848741 -0.76852995 -1.2836809
C 1.4162993 0.11757373 0.62008107
C -0.41004542 0.08215614 -0.6254452
C 1.0516535 -0.13910446 -0.7061857
N 0.38573086 0.31480482 1.4861887
N -0.7083282 0.18953547 0.8286268
H -0.5344446 1.1253958 -0.9777998
H -1.58288 0.43757972 1.2732067
H 2.4131598 0.11638768 1.0453668
H -0.746271 -1.475799 -1.6603582
