10

O -0.79433215 -1.7352293 -0.7457246
C -0.29844293 -0.58690023 -0.23424555
C 0.8635995 0.12550229 -0.4206634
C 0.7105968 1.2356974 0.44462103
N -0.43345192 1.212368 1.102072
N -1.0388553 0.08395565 0.6705249
H -0.1566134 -2.0963552 -1.3738911
H 1.687948 -0.1161094 -1.0752375
H 1.403773 2.04992 0.6068468
H -1.9442217 -0.17284942 1.0256975
