10

O -0.37611506 -1.77942803 -0.76259418
C -0.14414110 -0.42147371 -0.60634304
C 1.22454530 0.07845497 -0.34403051
C 0.95317183 1.05206033 0.62358659
N -0.33272889 1.10034468 1.06544834
N -0.99000104 0.18024588 0.46009159
H 0.46288511 -2.22210753 -0.58281051
H -0.45612223 0.13843178 -1.51030739
H 1.65550782 1.72463065 1.10209837
H -1.99700183 0.14884078 0.55486082
