10

O -1.7641951 0.037369154 -0.53193283
C 0.100962766 1.3804013 0.39707673
C 0.26431367 -1.0832303 -0.35428894
N 1.5471612 -1.107357 -0.2336686
N 2.6764228 -1.1152653 -0.13159512
C -0.49430487 0.1326899 0.011024128
N -0.35275933 0.71200234 1.3782291
H 0.58850735 2.3369124 0.23934917
H -2.3293698 0.6899793 -0.095601186
H -0.23673879 -1.9835013 -0.67859256
