10

O 1.2425401 0.509985 -1.753112
C 0.47322544 0.08465866 -0.73770887
N -0.06294065 -1.0926064 -0.6064738
C -0.75049675 -1.0234015 0.59229004
C -0.6134529 0.20360316 1.1638863
N 0.19105703 0.9241031 0.28431368
H 1.3053939 -0.24295527 -2.3582356
H -1.3046243 -1.8746713 0.9645887
H -0.9897731 0.63655156 2.0781848
H 0.50907135 1.874733 0.37226653
