10

O -0.14619271 2.36442370 -0.09316817
C 0.61735175 -0.88881364 -0.45696965
N -0.90729603 0.36281114 0.76660822
C -0.50289294 -1.01046582 0.53673563
C -0.12766413 1.03722952 0.01635656
N 0.83808139 0.33483004 -0.76451666
H 1.18996626 -1.70542430 -0.88635850
H -1.33290918 -1.60842861 0.14331416
H -0.17312338 -1.48988516 1.46678813
H 0.54467910 2.60372314 -0.72878995
