10

O -1.3971312 0.21715775 1.8089898
C 1.2101151 -0.17475525 -0.35442886
N -1.0004933 0.41148242 -0.46453625
C 0.1994452 0.1347261 -1.2605448
C -0.553114 0.16351408 0.77010196
N 0.73314327 -0.1548784 0.90270007
H -0.87684584 0.0077987276 2.5959802
H 0.23762543 0.4568328 -2.2926085
H -0.7963695 -0.6465199 -1.1380452
H 2.2436247 -0.41535842 -0.5676081
