13

C 0.19971502 -1.5216956 -0.5995788
C -0.20645754 -0.05648301 -0.5842689
O -1.5726172 0.13125493 -0.23222013
C 0.7355464 0.76879793 0.30343878
O 1.9423803 0.61970747 0.262761
N 0.0988224 1.6562893 1.109268
H 1.2495707 -1.6154963 -0.8832215
H -0.4252729 -2.077587 -1.3052702
H 0.08209063 -1.9668534 0.3979737
H -0.112477474 0.3588818 -1.592402
H -1.7569368 -0.4345002 0.5273363
H -0.88815993 1.8130013 0.97587526
H 0.6537965 2.3246825 1.6203085
