13

C -0.48274776 1.8371989 -0.50596136
C 0.40953264 -1.3715892 0.21661523
O -1.8122315 -0.43461818 0.21613123
C -0.45432287 -0.35829288 0.2945869
O -0.022201996 0.9198602 0.48241654
N 1.8207492 -1.2137651 0.21547224
H 0.034509946 -2.3874679 0.12643826
H 2.0591257 -0.23045224 0.28865457
H -0.02368722 2.7963352 -0.25500745
H -0.15675513 1.5239658 -1.5049305
H 2.2486913 -1.6931577 1.0013504
H -1.5748115 1.9321222 -0.48543262
H -2.0458508 -1.3201388 -0.09033359
