13

C -0.004772723 0.51954913 0.72383034
C 0.6556001 -0.30674824 -0.22903168
O 0.58757454 1.7660229 1.0103427
C -1.8047643 -0.7624291 -0.12339967
O 0.023378763 -1.3155936 -0.65779537
N 1.8867863 0.0062531997 -0.6878396
H -0.19067082 -0.021723619 1.6483648
H 0.32837248 2.3739686 0.30597165
H 2.3185217 -0.5720363 -1.3879132
H -2.0167286 -0.060605373 -0.92171544
H 2.434264 0.6558864 -0.15099101
H -2.2181132 -0.48050475 0.83933216
H -1.9994482 -1.8020393 -0.36915565
