11

N 0.5622201 -1.4103119 -1.3642538
C 0.17441514 -0.4398992 -0.45023412
C -1.0236133 0.10276984 -0.1056769
C -0.7121851 1.1305057 0.8560667
C 0.6289553 1.119127 1.0122987
O 1.1886641 0.15506248 0.2123482
H 1.4333498 -1.857384 -1.1090966
H -0.16170137 -2.093709 -1.5386076
H -1.9967469 -0.17318147 -0.48217487
H -1.414126 1.7815484 1.3556739
H 1.3207682 1.685472 1.613656
