11

N 0.152189 -0.72966814 -1.6803702
C -0.26012868 -0.0036691492 1.7156332
C -0.0129765235 1.2566239 1.2632368
C 0.05429379 -0.04697707 -0.37479436
C 0.2094146 1.2668155 -0.19078204
O -0.22883359 -0.8937568 0.68105835
H -0.47003508 -0.43437698 2.6844156
H 0.9101777 -1.4159071 -1.7352655
H 0.34928635 0.06469308 -2.3000958
H -0.7127609 -1.1902313 -1.9744052
H 0.00937327 2.126454 1.911369
