11

N 0.8179408 0.2984649 1.6543802
C -1.1808476 0.13934255 -1.2116729
C 0.2652155 -0.00038465223 0.3468789
C -0.90175354 0.6170981 0.14221089
C -0.15822795 -0.6731388 -1.6051698
O 0.7968716 -0.78823096 -0.6302191
H -2.0427659 0.36709267 -1.8292373
H 0.8837321 -0.48589608 2.3030238
H -0.21741094 0.9305377 1.6717808
H 1.6911808 0.8263413 1.6646737
H 0.046065092 -1.2312267 -2.5066493
