11

O -1.5707206 0.062301375 1.8017198
C -0.6985067 0.018118039 0.7835283
N 0.39996645 0.7124927 0.66342527
C 0.920903 0.29936746 -0.5416057
O 2.0790775 0.8163001 -0.99946654
C 0.14018025 -0.6395398 -1.1443721
N -0.9252746 -0.8099598 -0.25060585
H -1.2217486 0.70305234 2.43372
H 2.3698828 1.4492855 -0.33117318
H 0.22085321 -1.1835271 -2.0705123
H -1.7146126 -1.4278907 -0.3446581
