11

O -0.8149858 2.1594675 -0.7022598
C -0.42126894 1.0861531 -0.31126204
C 0.34663847 0.0002965942 -1.075789
C 0.5425165 -1.0872906 -0.055968422
C -0.014989836 -0.694209 1.0909443
N -0.58609813 0.58198255 0.9644475
H 1.2833287 0.41736948 -1.4603878
H -0.23910207 -0.31483296 -1.9467
H 1.0503155 -2.0247145 -0.23169412
H -0.072207496 -1.2088906 2.040929
H -1.0741469 1.0846689 1.6877407
