11

O -0.34695527 -0.94825673 -2.0019875
C -0.22444235 0.073189296 -1.2299106
C -0.27167386 0.04564724 0.16746074
C 0.810253 -1.2254179 0.53268003
O -0.57238525 -1.1686243 0.766207
C -0.12531573 1.2686688 0.9742507
O 0.029061625 2.3680747 0.4982077
H -0.09620813 1.0196681 -1.7567781
H -0.1800626 1.0860692 2.067977
H -0.3236652 -1.7542084 -1.44383
H 1.3013937 -0.76480985 1.425723
