11

O 0.44644848 1.1470953 0.98481786
C 1.334953 -1.0220424 0.05856349
C -0.7172359 0.38508216 1.0112875
C -0.6749733 0.49889272 -1.0012293
O 1.4599298 -1.808665 -0.8510425
C 0.33633775 0.055839296 0.049375527
O -1.6299144 0.81055504 0.04243746
H -1.0636315 -0.03751235 1.9476932
H -0.40948454 1.3680404 -1.6060863
H -1.0316681 -0.3320659 -1.6146252
H 1.9492388 -1.0652192 0.97880834
