11

N 1.0405792 0.13268517 1.7687216
C 0.37255496 0.05897112 0.54057425
C -0.97108036 0.12531354 0.2735272
N -1.0561466 0.06377036 -1.1108891
C 0.20724459 -0.025042312 -1.5867363
N 1.0950736 -0.036964823 -0.6219054
H 2.010667 -0.1251999 1.643762
H 0.61862636 -0.42978927 2.4948697
H -1.8444164 0.22742066 0.8984724
H -1.8999017 0.09048183 -1.6556195
H 0.42679977 -0.08164633 -2.6447766
