12

C -1.3539271 -0.1604209 1.1647933
N -0.82496655 -1.0508484 0.13062187
C 0.19739035 -0.8586979 -0.70027983
N 0.79007375 0.36119378 -0.524731
C 1.8786267 0.7056625 -1.3108798
O 2.4502237 1.7634678 -1.2147692
H -0.58279073 0.08681427 1.9035769
H -2.1716852 -0.6695485 1.6797101
H 2.1429062 -0.095843226 -2.0183427
H -1.7462376 0.76564604 0.727284
H 0.5124257 1.090317 0.13615493
H -1.2920398 -1.9377425 0.026861591
