12

C -0.15929984 -1.0173479 -0.13901857
N 0.19142659 -0.6065875 -1.3606505
C -0.6766596 -0.54209757 2.1452043
N -0.32682526 -0.10744554 0.87149423
C 0.46506092 0.81127447 -1.627761
O -0.85219014 0.20909506 3.0705128
H 1.1678933 1.2506171 -0.9063807
H 0.79201186 -1.5436677 -0.7911484
H -0.4748176 1.3771098 -1.5922234
H -0.76328754 -1.6384649 2.1944592
H -0.24449597 0.8994222 0.7668949
H 0.8811832 0.908093 -2.6313832
