12

C -1.1636654 -1.8221745 0.98074657
N 0.75917035 0.6651352 -0.82563275
C -0.052755747 0.011589535 0.10002506
N -0.30131814 -1.2186545 -0.016608354
C 1.0445298 1.9715123 -0.76291543
O 1.8121454 2.4710922 -1.6957215
H -0.42306098 0.6710869 0.89253986
H -1.497146 -1.1204116 1.759312
H -0.6361059 -2.6553705 1.4565142
H 1.1466104 0.115611665 -1.5922995
H 1.3556993 3.1476479 -0.77682495
H -2.0441031 -2.2370648 0.4808644
