12

N -0.7444285 -1.0244769 -1.0291536
C -0.23452978 -0.6328516 0.28097862
C 0.5694656 0.66664296 0.08448186
O -0.17087792 1.5749571 -0.6811128
C 0.8936234 1.2608063 1.3934697
N 1.1569607 1.6820025 2.436781
H -0.04229429 -1.5323832 -1.560136
H -1.5631049 -1.6124502 -0.9505774
H -1.0918944 -0.4119793 0.93032897
H 0.38664526 -1.390649 0.7755808
H 1.5275539 0.42210203 -0.40604252
H -0.6871191 0.9982789 -1.2745986
