10

O -0.99544257 1.4468808 -1.1801348
C 0.49118206 0.25308427 -0.22476268
C 1.8740858 -0.17547764 0.082842655
N 0.34217 1.2497672 -1.063602
O 1.7541021 -1.1899762 0.9244469
C -1.6514299 0.5563161 -0.404037
C -0.7729334 -0.2396853 0.23520586
H -2.728744 0.63061756 -0.43117192
H -0.9589801 -1.0493782 0.92120636
H 2.6459906 -1.4821484 1.1400063
