10

O 1.0220909 -1.4804581 1.6765318
C -0.37151003 -0.30859366 0.20732988
C -0.09658397 1.2731384 -1.2512132
N -1.5650738 -0.075276524 -0.28062522
O -1.3956561 0.91652656 -1.1983751
C 0.6244908 0.53681666 -0.38135165
C -0.19444537 -1.3345039 1.2368304
H 1.6804715 0.5595473 -0.16650203
H 0.14130421 2.0588396 -1.9536383
H 0.15491188 -2.1460364 2.1110134
