10

N 0.22572611 1.7662866 0.39404744
C -0.20301582 0.47973067 0.16310053
N -1.402075 0.048135735 0.36149117
O -1.3351252 -1.3411628 0.10537273
C -0.08029876 -1.6992395 -0.26122266
O 0.28222156 -2.8107197 -0.52609336
N 0.6436739 -0.51408017 -0.2567941
H 0.7530285 2.1762216 -0.36496437
H -0.5319162 2.3689003 0.6844149
H 1.6477809 -0.47407252 -0.29935235
