10

N -0.44695124 0.64142549 -0.14995175
C -1.06880932 -0.34833255 -0.71511610
N 1.67078761 0.66262148 0.93918277
O -2.22928956 -0.31336376 -1.34345305
C 0.66718175 -0.01540982 0.30813886
O -0.47698511 -1.51950005 -0.65461852
N 0.72593052 -1.30206419 0.06260442
H -2.52953850 0.60646466 -1.31422879
H 1.37010635 1.49964917 1.41224500
H 2.31756750 0.08850978 1.45519710
