11

N 1.615069 -1.601745 0.64534575
C 0.7587139 -0.73667663 0.30639845
C 0.85453564 0.6710411 0.73663056
N 0.021138122 1.5916787 0.42926922
C -1.053701 1.2064375 -0.3791106
C -1.2010664 -0.04941544 -0.8035408
O -0.3269804 -1.0401611 -0.48748294
H 1.3939862 -2.5192137 0.2621947
H 1.7103987 0.9115524 1.3641781
H -1.7641393 1.9788862 -0.6446262
H -2.0079544 -0.41238394 -1.4292561
