11

N 1.2895857 0.52834034 1.9170458
C -1.7956803 -0.36425334 -0.050106455
C 1.7837319 0.27317354 -0.6067183
N 0.4823189 0.036589153 -0.48963612
C -0.6933189 -0.2799434 -0.9777671
C 1.3119175 0.36202386 0.68964577
O -1.7032571 -0.16663994 1.1511605
H -0.78716063 -0.45762405 -2.043931
H 0.358082 0.36651137 2.3028271
H -2.768872 -0.6265325 -0.5083692
H 2.522653 0.328355 -1.3841512
