12

C -1.5310308 1.1516458 -1.3208252
N -0.7211595 0.7223721 -0.42541882
C -0.1053472 -0.45566922 -0.627854
N 0.77018726 -0.9521252 0.29327413
C 1.0211483 -0.15236984 1.5067242
O 1.3417195 -2.0399578 0.11661999
H 1.4409109 0.8179908 1.2327696
H -0.2517764 -1.0685999 -1.5131125
H 1.7238942 -0.73435587 2.1006904
H -2.023223 2.1071022 -1.1681249
H 0.08293633 0.0050252727 2.041882
H -1.7482595 0.5989418 -2.2366247
