12

C -1.19399857 1.82820444 -0.80433739
N -0.40915885 1.00469032 -0.21461616
C 1.30370658 -0.72434641 1.05444278
N 0.29625399 -1.21997349 0.09817701
C -0.52050286 -0.30475124 -0.49913584
O 0.19948101 -2.43127626 -0.15602006
H -1.95367516 1.51195449 -1.52144003
H -1.10192916 2.88776996 -0.58682509
H 0.80610611 -0.19322234 1.86789824
H 1.82290244 -1.60968089 1.41772490
H 1.98998175 -0.04005106 0.55083796
H -1.23916757 -0.70931728 -1.20670598
