10

C -1.2215146 -0.38181025 -0.35069764
C -0.09113772 -0.8118835 -1.0448763
N 1.136327 -0.43170822 -0.6981192
C 1.2214284 0.38074172 0.35051364
C 0.09048955 0.81184685 1.0442543
N -1.1355511 0.43329617 0.69729984
H -2.2177036 -0.70206076 -0.64832664
H -0.17966956 -1.4788202 -1.8994235
H 2.2171931 0.7018915 0.649634
H 0.1801387 1.4785067 1.8997413
