11

C 0.20983398 -1.4051533 0.021311536
C -0.17880692 -0.19920728 0.75418925
C -0.69016933 0.88177186 0.26809037
C -0.92826647 2.203385 -0.025581406
O -0.5986707 -2.0714731 -0.6026604
N 1.5456625 -1.7206143 0.11313832
H -1.9289854 2.520624 -0.30639696
H -0.12464446 2.9331298 -0.08768042
H 2.0819452 -1.3287579 0.86837834
H -1.1805108 0.8315848 -0.79435986
H 1.7926124 -2.6452901 -0.20842873
