11

C -0.72921485 -0.17285722 -2.3160484
C -0.16392522 -0.122748986 -0.969309
C 0.31641996 -0.08848084 0.13382734
C 0.97540265 -0.09809221 1.4389886
O 2.083066 -0.5646107 1.6086582
N 0.24623957 0.47282574 2.4406831
H 0.008989751 0.15177217 -3.0534925
H -1.6065109 0.47429708 -2.4000866
H -1.0305697 -1.1948378 -2.5645306
H 0.61501586 0.40423095 3.3757634
H -0.7149129 0.7385019 2.3055458
