11

O -0.6375248 -1.7027128 -0.5475875
C 1.0807395 0.013145133 0.16156265
C -0.24407127 -0.49747956 0.6150005
N 0.6065603 1.3034794 0.11043598
C -0.7940895 0.8687784 0.18196052
O 2.135632 -0.5050165 -0.13029073
H 0.25790763 -2.0221603 -0.77678645
H -0.7256178 -1.8488728 0.5112567
H 1.0191034 2.140507 -0.27011216
H -1.2984045 0.8662129 -0.7882648
H -1.4002352 1.3841189 0.9328253
