10

N 2.3061428 -1.8014629 -0.94015133
C 1.5255848 -0.9318379 -0.96948797
C 0.137738 0.80172104 0.033537243
C -1.0719446 -0.053931985 0.5082471
C 0.5683782 0.07409752 -1.1746622
H -0.754912 -1.0460244 0.83922434
H -1.5375664 0.45948198 1.3534317
H 0.8706384 0.859684 0.84825665
H -0.22802864 1.8016108 -0.21418683
H -1.8160311 -0.16333821 -0.28420877
