10

N -0.014500661 -1.2974322 -2.518972
C 0.2673725 0.9121816 0.32189015
C 0.0070450963 -0.490302 0.8830136
C -0.36121678 -0.8763374 -1.49494
C -0.9261417 -0.4008509 -0.25417358
H 0.026487542 1.7050679 1.0288782
H -0.44614977 -0.49861768 1.8739603
H 0.8728945 -1.1462888 0.7989648
H 1.2021055 1.0176306 -0.21952337
H -0.6278963 1.074949 -0.4190985
