10

N -0.8246658 0.8730693 1.3551441
C -0.17182812 0.1775504 0.350843
C 0.35030913 -1.0653903 0.21225162
N 0.98715955 -1.1474618 -1.0266929
C 0.81233126 0.008424536 -1.5535227
O 0.11340826 0.8808047 -0.7729838
H -1.5016325 1.5371238 1.0040344
H -1.2347643 0.26470175 2.0506442
H 0.33073863 -1.9016305 0.8963466
H 1.1389437 0.3728082 -2.5160646
