10

N -1.1562307 0.8314349 1.0656034
C 0.2898119 -0.21800365 -0.23025322
C 0.0858322 1.2699502 1.4100102
N 1.0365378 -0.9779103 -1.0877678
C -1.0373244 -0.07943003 0.0027614508
O 0.9799999 0.6280084 0.57365316
H -1.8897141 -0.56179744 -0.45215312
H 0.5773634 -1.7968031 -1.4555295
H 1.9884965 -1.1327503 -0.7925154
H -0.87477237 2.0373013 0.96619064
