10

N -0.79096989 0.35749414 1.44477207
C -0.50695204 0.77634460 0.13504891
C -0.18290222 -0.78751807 1.79423172
N 1.03880003 -0.36086910 -1.49500063
C 0.32650279 -0.17490016 -0.32861615
O 0.51667607 -1.10116837 0.64933685
H -0.90444572 1.67347624 -0.31141934
H -1.39388454 0.84904507 2.08557379
H 1.24984931 -1.33279714 -1.67320732
H 0.64732603 0.10089289 -2.30071998
