11

N 1.87335961 0.69220730 -2.11647408
C 1.33350571 0.21450477 -1.13756057
C 0.81785469 -0.22779325 -0.00612138
C -0.56244416 0.12045411 0.40000959
N -0.90382379 -0.38360761 1.65107306
N -1.29339489 0.85312297 -0.34482284
H 1.82713797 0.15029942 -2.97268666
H -2.20416266 1.02186093 0.08787423
H 1.45056701 -0.82844858 0.63976287
H -0.44739270 -1.23763277 1.93512752
H -1.89120680 -0.37496771 1.86381889
