11

O -2.296724 -0.6241184 -0.4235599
C -1.1539845 -0.37377498 -0.16066577
C 0.1146431 -1.2132924 0.04131717
N 0.75704336 -0.050254155 0.72777146
C 0.85766286 0.9810214 -0.28466582
C -0.4430526 0.8112774 0.41309533
H -0.061229356 -2.0384908 0.73637855
H 0.6574276 -1.5756929 -0.8366513
H 0.9602158 0.6984329 -1.3317033
H 1.4550816 1.8348937 0.022467874
H -0.847084 1.549998 1.0962157
