11

O -2.288797 1.6118286 0.21881503
C -1.3595098 0.8508018 0.11201623
C 0.18526414 1.0633799 0.17638673
N 0.2520012 -0.4015548 -0.063767046
C -1.1133561 -0.53891295 -0.115569
C 1.2982007 -1.1631385 -0.16178523
H 1.1649495 -2.2239506 -0.3302398
H 0.60803396 1.3367311 1.1464397
H 0.63546526 1.634357 -0.6390443
H 2.2780948 -0.7112644 -0.07392902
H -1.6603465 -1.4582773 -0.2693233
