12

N -1.11274343 0.11655042 -1.53034464
C -0.74819844 0.03034172 -0.24403720
C -0.72235458 -0.35788480 1.92059631
N -1.49698180 -0.39098422 0.72296557
C 0.66699250 0.39746665 0.17677440
O 1.66398863 -0.28307005 -0.53742578
N 0.51876972 0.03862099 1.57740085
H 1.55431850 -1.22902043 -0.35386864
H -0.42167808 0.25524894 -2.24694488
H -2.01312414 -0.26322832 -1.78782669
H 1.23565821 0.22435587 2.26101346
H 0.87535231 1.46160313 0.04169717
