10

C 0.8339296 0.3129522 -0.3647308
C 0.1371638 0.66019386 0.69226515
N -2.2014658 -1.6955407 -0.13807139
N -1.7087264 -0.8631099 0.4646138
C 1.5327594 -0.026316717 -1.4095142
C -1.134399 0.08224376 1.1296966
H 2.2939203 -0.799661 -1.3507874
H -1.6540474 0.4170163 2.0174372
H 0.5192491 1.4540961 1.3299968
H 1.3816165 0.4581258 -2.370906
