10

C -0.83063656 -1.0910231 0.14454652
C -0.18412912 -0.4636432 -0.9391672
N -0.74951917 -0.70354134 1.3975407
C 0.5660014 0.6248693 -0.6220128
N 0.6172 0.9986466 0.68278676
C -0.0075297505 0.4076532 1.770819
H 1.1788896 1.8097296 0.91362756
H 1.1295038 1.2126877 -1.3402101
H -0.27161813 -0.82495445 -1.9567939
H -1.4481622 -1.9704244 -0.051136527
