9

O 0.83346575 -1.7237321 -0.6219576
C 0.27361637 -0.5740583 -0.21533743
N -0.66025794 0.069395326 -0.8955691
N -0.9054872 1.1246476 -0.124447025
N -0.21229142 1.2133152 0.9893211
C 0.5620429 0.13241422 0.9659961
H 0.4399915 -1.963738 -1.4716735
H -1.5930473 1.814186 -0.38183495
H 1.2619673 -0.092429966 1.7555023
