9

O -1.2403252 1.4986389 -0.4151855
C 0.80432296 0.17989504 -0.59221834
N 1.2983304 -0.8288187 0.13431768
N 0.29369703 -1.1558981 1.0839975
N -0.7453925 -0.37355933 0.91391754
C -0.43959132 0.4920902 -0.055107888
H 1.3465765 0.632724 -1.4088527
H -2.0204918 1.4693686 0.15619437
H 0.70287395 -1.9144404 0.18293738
