10

N -0.97412472 -1.67850005 -2.39742576
C -1.10724581 -0.69777275 0.03429552
O 0.15572350 -0.24958136 0.48279510
C 0.37382472 1.06282469 0.24101941
C -1.01722992 -1.23897249 -1.33222618
N 1.61866738 1.31043153 0.64323864
H -1.82101321 0.13097865 0.04145205
H -1.43728705 -1.48884073 0.71090282
H 1.97024986 2.24759780 0.54658412
H 2.23843523 0.60183485 1.02936419
