10

O -0.37373057 1.6419694 -1.2150732
C -0.16927105 0.6072164 -0.35476953
C 0.51444215 -0.5740441 -0.5353199
N 0.40769166 -1.238363 0.64793116
N -0.28894812 -0.569644 1.5690755
C -0.64917076 0.558092 0.9740625
H -0.038300045 1.3982248 -2.0857174
H 1.0496581 -0.9810795 -1.379344
H 0.7843078 -2.1408076 0.8801137
H -1.2366793 1.2984356 1.4990413
