11

N 1.0334744 -0.020167898 -1.5514511
C 0.27997395 -0.026636967 -0.37464023
C -0.3746094 0.9694625 0.3195625
C -0.87239414 0.31718808 1.4702926
N -0.5717491 -0.96644396 1.495985
N 0.1343119 -1.1559904 0.35936698
H 1.0317101 0.89530075 -1.982231
H 0.7294194 -0.70747876 -2.2292497
H -0.48272264 2.0052257 0.034636553
H -1.4520578 0.7461927 2.2770545
H 0.54464316 -2.0566516 0.1806741
