14

C -0.042499494 0.006200328 0.28195167
N -0.99868554 -0.9729992 0.178573
C -1.2228911 -1.6338522 -1.0933732
O 0.46670514 0.50520366 -0.76890284
N 0.3823073 0.52194464 1.3971223
C 1.501946 1.8687347 0.25850677
H -0.038571555 0.27641425 2.2889597
H -1.1619018 -1.5162064 1.011041
H -0.47143185 -2.405513 -1.3030927
H 2.1146743 1.7666541 -0.6318092
H -2.2171226 -2.0889668 -1.0940983
H -1.1784105 -0.8860377 -1.8877659
H 0.7697523 2.6644413 0.19730641
H 2.0961292 1.893982 1.1655815
