14

C -2.15022220 0.81204001 0.77720299
N -2.73660350 1.89296738 1.10436995
C -0.31251995 -0.27275686 -0.04065652
O -0.54067739 -1.45794716 -0.10369336
N -0.84557267 0.84740055 0.29960720
C 2.13464788 -1.00099188 -0.57651072
N 1.17193361 0.11800484 -0.56503267
H -2.60864846 -0.18667368 0.84254856
H 2.39325768 -1.24679083 0.45463617
H -3.67335401 1.67327618 1.44055137
H 1.64096795 -1.85541502 -1.03762768
H 1.02766252 0.49973803 -1.49818058
H 1.46551320 0.89401425 0.02953085
H 3.03361586 -0.71686581 -1.12674572
