10

N 0.9585082 -0.73861325 -0.31805763
C -0.20482926 -0.1454378 -0.88792765
C -0.2702899 0.545274 1.1467429
N -0.94060475 0.57984716 -0.14104214
C -0.4949623 -0.39623362 -2.2824028
C 0.92312926 -0.32965952 0.8941292
N -0.71228194 -0.6096829 -3.3934162
H -0.9434897 0.13903196 1.9099185
H 1.6824379 -0.6049524 1.6187667
H 0.0023825227 1.5604265 1.4532889
