10

N 0.6098777 -0.1736418 3.3009825
C 0.35470328 -0.027332978 2.1838992
C 0.04206254 0.1369518 0.7973144
N -0.6526881 1.1239091 0.28308627
C -0.70085883 0.8645075 -1.0539668
C -0.026330449 -0.29325762 -1.3495795
N 0.44820678 -0.75383633 -0.15232997
H -1.2204969 1.5250958 -1.7342718
H 0.15312356 -0.8141658 -2.276089
H 0.99240035 -1.58823 0.0009545983
