12

C 1.27647166 0.50575841 1.10761725
C -0.27373790 -0.21366512 -0.51367803
C -1.31687411 0.38638662 0.07285048
O 1.01449425 -0.19699324 -0.09028600
N -0.33616455 -0.92957306 -1.70643121
H 1.04907205 1.57361345 1.00254225
H 2.34160060 0.38021427 1.30543819
H 0.69638579 0.09680853 1.94322047
H -1.26890514 -1.20790192 -1.96544334
H 0.32988546 -1.68535944 -1.75027688
H -2.30377813 0.28321154 -0.35744985
H -1.20845056 1.00749992 0.95189696
