12

C 1.400972 -0.29096797 0.88152474
C 0.3371841 -0.5052541 -0.18809241
C -0.5918355 0.6934452 -0.31765765
O -0.21911435 1.8337092 -0.11464732
N -1.8707026 0.39486265 -0.69206625
H 2.116329 -1.1184561 0.89083153
H 1.941554 0.6420172 0.69582564
H 0.9499051 -0.2203351 1.8764637
H -0.2455613 -1.4146745 0.011039443
H 0.81180817 -0.64369726 -1.1676967
H -2.1409707 -0.53335935 -0.96549594
H -2.4895685 1.1627101 -0.9100285
