10

O -1.94833348 0.95404290 1.18258950
C -0.36824999 -0.41133408 0.10893078
C 0.29203568 -0.96958506 -0.87761419
N 1.52395558 -0.46112296 -1.39346203
N 1.58631465 0.78550244 -1.41273859
C -0.91408408 0.07166698 1.19106907
H 2.53350987 1.01093343 -1.74932057
H -0.00020528 -1.92414913 -1.30818930
H -0.54077856 -0.24347287 2.16721648
H -2.16416455 1.18751809 2.09151886
