11

N -0.15595637 1.05584836 -2.95792131
C -0.38448197 -0.93624683 2.35068408
C 0.14960328 0.86102046 -0.36281111
C -0.02435680 0.98376537 -1.81239123
C 0.29937711 -0.59829315 0.05226489
O 0.52751270 -0.63079799 1.47768332
H -0.71821908 1.30304363 0.13942967
H -1.30277989 -1.21822850 1.75775531
H 1.03827292 1.42231734 -0.05183315
H 1.17148894 -1.05926588 -0.41646983
H -0.60046101 -1.18316325 -0.17639055
