11

N 0.33026376 2.9270456 0.45058936
C -0.20560679 1.9091312 0.35083959
C -0.85449535 0.6005643 0.2040402
C 0.0076054838 -0.35717922 -0.5975272
C 0.9149064 -1.2920725 0.06692184
O -0.33291054 -1.720788 -0.4656442
H -1.8245806 0.73837703 -0.2877948
H -1.0488031 0.1772242 1.194545
H 0.23761542 -0.03785135 -1.6135539
H 1.7974571 -1.6530163 -0.4572075
H 0.97854805 -1.2914354 1.1547917
