10

N 0.49481848 0.16230924 -0.05573947
C 1.572113 -0.46808693 0.3442426
O -1.0800352 -1.3259941 0.7306706
N -1.7375126 0.56039226 -0.37089187
C -0.8175217 -0.29340005 0.14784925
O 2.581936 0.2218908 -0.0027179096
H -2.7044003 0.28698745 -0.32851315
H -1.4662565 1.362348 -0.91241956
H 1.5415524 0.9089218 -0.43147722
H 1.6153061 -1.4153686 0.8789969
