10

N 0.60597336 -0.8075161 1.5053099
C 0.01428564 0.16833128 0.74237937
O -0.40155175 1.2153523 1.1903284
N -0.10089383 -0.17645915 -0.60628945
C -0.63845444 0.6732835 -1.5601348
O -0.7685716 0.34549093 -2.7134795
H 0.824857 -0.5138328 2.4448946
H 1.2534192 -1.4533376 1.0805194
H 0.13238898 -1.1044904 -0.93291074
H -0.9214524 1.6531781 -1.150617
