11

N -1.68130387 0.79290575 1.60860453
C 1.06220186 -0.44481900 -0.15162737
O 0.51519909 0.22933412 0.97848740
C -0.82739267 0.38141275 0.78112880
C 0.02559668 -0.16402522 -1.23449859
O -1.16509265 0.03223482 -0.47958262
H -0.13018723 -0.99675979 -1.92132544
H 1.15287104 -1.51353178 0.06974744
H -1.25405139 0.96216051 2.51285794
H 2.04672546 -0.02469282 -0.36519668
H 0.25543365 0.74578072 -1.79859576
