11

N -2.1262362 -0.7150076 0.081925325
C 0.5756861 0.6001047 -0.6299407
O -0.0064396313 -0.8816804 1.0441165
C 1.1443748 -0.11966209 0.62603444
C -0.9449118 -0.44355497 0.24541868
O 0.16057955 -0.16592349 -1.5778106
H -2.5856557 -0.45926568 -0.776826
H 1.9161857 -0.83916163 0.34348464
H 1.4624014 0.53426826 1.4401698
H -0.6373966 0.91822624 0.0718343
H 1.0414121 1.5716567 -0.86840624
