10

C 0.60510796 0.97000676 0.21141262
C -0.53871214 -1.2618232 0.26227897
O -0.29899973 -2.3956902 -0.074891694
C -0.24847674 -0.034742616 -0.5665537
H 0.7446619 1.8883305 -0.36633155
H 1.5950458 0.56035167 0.43707666
H 0.1280394 1.2415605 1.161172
H -1.2160268 0.42273247 -0.81616527
H 0.23002005 -0.34599167 -1.4994992
H -1.0006597 -1.0447342 1.2515012
