10

C -0.7225318 -0.15827148 0.004423539
C 0.08375851 -1.1504225 0.63483393
O -1.7899562 0.35803416 0.43661296
C 0.44038302 0.95597035 -0.3837674
H -0.72919077 -0.5822021 -1.0635188
H -0.1228655 1.6506261 -1.0060254
H 1.3052433 0.565243 -0.9187606
H 0.95279443 -1.5564084 0.1206179
H 0.7301036 1.4473027 0.5453882
H -0.14773858 -1.5298718 1.6301955
