10

C 0.58232255 -0.86305397 -0.93125568
C -0.47485618 0.06890395 -0.39203912
O 1.12450994 -0.74619025 -2.00325203
C -0.08215979 0.61580057 0.98275301
H -1.40318232 -0.51252912 -0.30322090
H -0.64351754 0.86763434 -1.11991656
H -0.88745114 1.22701361 1.40049286
H 0.84807359 -1.69717811 -0.24372596
H 0.81619594 1.23861888 0.92132979
H 0.12006513 -0.19901999 1.68883463
