11

N -0.22118897 -0.42902520 -0.56889303
C -1.18016835 -0.12618436 -1.47571591
O 1.67026222 -1.20370165 1.13020740
C 1.19719785 -0.11331518 1.33922100
C 0.11792250 0.49274631 0.48091515
O -1.80863594 0.91285467 -1.47057015
H -1.32877310 -0.92779251 -2.22179652
H 0.29093792 -1.29973268 -0.58978888
H 0.47569963 1.45145079 0.08091345
H 1.53902989 0.51211258 2.18737132
H -0.75228355 0.73058746 1.10813640
