11

N -0.063918605 -0.3216886 -0.67011744
C 0.2597538 -0.54403925 1.6959319
O 0.32114232 -1.7397732 1.5447003
C -0.27140796 0.31365478 -1.8478138
C 0.04871287 0.4188019 0.55697036
O -0.377105 1.5187018 -1.9540678
H 0.35921013 -0.08233716 2.6980834
H -0.33391458 -0.3840564 -2.7025578
H 0.8872158 1.1281935 0.5287476
H 0.021144113 -1.3261738 -0.6021768
H -0.85083276 1.0187165 0.75229985
