11

N -0.16751906 1.1822057 0.22040339
C 0.6251696 1.0548111 1.2270405
O -1.7071346 -0.04657705 -1.4687654
C 0.2577966 -0.7976975 -0.19337155
C -0.8805745 -0.8600844 -1.1747867
O 1.1649885 -0.0760911 1.3891314
H -0.8708644 -1.8701955 -1.65738
H 0.86751497 1.864541 1.9254758
H -0.68204886 2.0383582 0.03197105
H 1.2018374 -0.8003929 -0.7403448
H 0.19083446 -1.6888775 0.44062623
