9

O 0.05640592 -2.17253022 -0.34370797
C -0.95075072 0.51881670 -0.82679762
C 0.41826999 -1.27472506 0.36945714
O 0.57989079 0.99820825 1.08094915
C 0.11333523 0.16467613 0.08031381
N 0.19479333 0.59556144 -1.35015571
H -1.98943056 0.70173865 -1.06685875
H 0.99435760 -1.43821859 1.30144730
H 0.58312855 1.90647262 0.75535280
