9

O -1.1915079 0.3197425 1.3719333
C 1.3272568 0.37234426 -0.27986306
C -0.469012 0.15973589 0.2765362
O 0.44226933 -1.0145324 -1.4350574
C -0.5647457 -0.83108133 -0.6843146
N 0.5580689 1.2699538 -0.008805523
H -0.9524994 1.1496085 1.8068635
H 2.3308387 -0.012431158 -0.23950474
H -1.4806685 -1.4133402 -0.8077877
