11

N -2.03359288 -1.50389522 0.17129257
C -0.54895401 0.42715350 -0.01468240
C 1.99662992 -1.94740599 0.52090918
N 1.46759077 -0.87460324 0.21795990
C 0.89039141 0.25269487 0.08782550
N -1.07170700 1.72121628 -0.20109480
N -1.33385862 -0.60998962 0.08118816
H 2.33002845 -2.52614848 -0.35349608
H -1.51886907 1.86419518 -1.09780808
H 1.48910971 1.15362655 0.03715232
H -1.66676873 2.04315639 0.55075370
