11

N -0.42479262 -1.6496596 -1.06313
C -0.23461726 -0.48717678 -0.35756263
C 1.0121937 -0.13177837 0.20068637
N 1.1629996 1.0149691 0.82209986
C 0.06654557 1.7908082 0.87264156
N -1.1221488 1.4925759 0.37195367
N -1.2780126 0.32797348 -0.24733706
H 0.18042749 -2.430758 -0.8649313
H -1.3886756 -1.887348 -1.237545
H 1.8734623 -0.7914284 0.13334318
H 0.15261818 2.7518227 1.3697813
