10

N 0.9021573 1.9275097 -1.84761
C 0.35239354 1.080191 -1.2833332
C -0.32730985 0.02327151 -0.57267684
C -0.48208246 0.120161735 0.92894155
C 0.46555907 -0.8779138 0.3490018
H -1.144596 -0.4295592 -1.127648
H -1.4207321 -0.2287697 1.3460538
H -0.065653205 0.9975132 1.4129639
H 0.19148448 -1.9284021 0.35780904
H 1.5287793 -0.6840025 0.43649825
