10

N 0.14408059 2.20736097 -0.44925421
C 0.00498602 1.01257172 -0.55502387
C -0.16646616 -0.32401827 -0.65666598
C -0.57588908 -1.00914837 0.70087635
C 0.80112940 -1.16324921 0.29836934
H -0.49990418 -0.72959357 -1.60638582
H -0.92303751 -0.36331011 1.51339696
H 1.05341843 2.64609559 -0.55522839
H -1.29871807 -1.78928156 0.44328849
H 1.46040063 -0.48742735 0.86662743
