11

C 1.1854982 1.293039 -1.28142
N -0.90664303 -0.94340545 0.44529992
C -0.17933005 -1.0150799 1.6995902
O 0.83728486 0.2571181 -0.53010625
C -0.43864635 -0.33017486 -0.54157263
O 0.10772383 1.703524 -1.9465764
H 0.4036269 2.4540224 -2.4787598
H -0.95665544 -0.25580388 -1.4931575
H 0.77693045 -0.4780511 1.7150178
H -0.0024322122 -2.071279 1.9260265
H -0.82735723 -0.61390924 2.4856577
