10

O -0.73706365 -1.5612518 1.3507559
C 0.03776579 0.9168824 -1.0389603
C -1.0332844 -0.015339409 -0.6018544
C -0.396811 -0.59703577 0.45720893
N 0.8885741 -0.07551136 0.63317263
N 1.244748 0.8197441 -0.19077475
H -0.27822194 1.9673368 -1.0128497
H 0.37016782 0.73411655 -2.0693152
H 1.5419434 -0.3656411 1.3567835
H -1.637818 -1.8233004 1.1158332
