11

O -1.8760664 -0.089053445 -0.09565144
C -0.6248237 0.49583516 0.08473012
C 0.27368715 0.073235385 1.2659603
O 1.3688663 -0.18452588 0.3374286
C 0.5412837 0.0019541131 -0.7415359
N 0.6966891 -0.2637205 -1.9574937
H -1.7494131 -0.9445429 -0.52594703
H -0.7469318 1.5819472 0.0226116
H 0.54772425 0.8382315 1.9944506
H -0.049212296 -0.850078 1.7555014
H 1.6181968 -0.65928286 -2.1400547
