11

O -1.6240777 0.20853621 0.5430469
C -0.4222407 0.6902717 0.009714503
C -0.376428 0.49747148 -1.4628251
O 0.5879097 -1.435864 0.47448942
C 0.76687837 -0.04509017 0.63818157
N -0.30374894 0.27200925 -2.5942562
H 0.75434005 0.14210652 1.7140498
H -0.36446333 1.762136 0.21555811
H -1.4878241 -0.7410116 0.68659234
H 1.7173405 0.3142381 0.22616467
H 0.75231415 -1.6648036 -0.45071593
