12

C -0.80874395 0.26526278 -0.12261935
C 0.24883814 1.3667773 -0.34194505
N -0.47634172 0.22993653 -1.4595773
N 0.7088919 -1.5531678 0.33630037
C -0.346832 -0.8512369 0.8219294
O -0.88460565 -1.0362552 1.8912785
H 0.9552002 -2.3989246 0.8273436
H 1.1834395 1.1402463 0.17319246
H -0.1861056 2.3534584 -0.19808744
H 0.48818418 1.3143666 -1.4703785
H -1.7845788 0.65323573 0.19577922
H 0.9026538 -1.4836992 -0.65321594
