12

C 0.85807055 -0.351213 -1.1159533
C -0.95128745 -0.38254046 0.74475735
N 1.129799 0.7253677 -0.17321706
N -1.536316 0.7917435 0.39161637
C 0.48809937 -0.49416718 0.31363493
O -1.515993 -1.2932485 1.3172867
H 1.6922733 -0.94561124 -1.4852026
H -2.473979 0.9683484 0.71876335
H -0.94213057 1.5643197 0.12797415
H 1.0608466 -1.1973225 0.9113993
H 0.08185584 -0.13610171 -1.8440082
H 2.108761 0.7504254 0.092949025
