11

C -0.42591017 0.61659062 -1.37882649
C 0.77771586 0.29273504 -0.51165601
O 0.49884227 0.44976210 0.85293243
C -0.30108144 -0.59349288 1.37477649
O -0.56755443 0.22019225 -2.50754313
H -1.27558577 -0.65450696 0.86811720
H -1.15824265 1.29615679 -0.89273004
H 0.20502809 -1.56522699 1.28223435
H 1.15428509 -0.71167978 -0.75687496
H -0.46494078 -0.37279664 2.43056059
H 1.55744387 1.02226690 -0.76099076
