11

C -0.8401682 -0.14076918 -0.7119623
C 0.40441436 -0.9273546 -0.2923074
O 0.6602934 -0.43043315 1.0086011
C 0.35116133 0.933693 0.9214849
O -0.73690397 1.0663556 0.029761696
H -1.7640611 -0.6601685 -0.43417048
H -0.8617117 0.07882743 -1.7855386
H 0.2521558 -2.0068696 -0.23021276
H 1.2522686 -0.71420395 -0.9598581
H 0.06906381 1.2963486 1.9139062
H 1.2134876 1.5045748 0.5402954
