9

N 0.76898605 0.43714255 -0.32748901
C -0.22771363 -0.55133070 -0.79485389
C 0.21546821 -0.65124736 0.60925574
C -0.63865230 -0.04750067 1.58106750
N -1.29437974 0.40997690 2.42501602
H 1.73679113 0.34437596 -0.61088417
H 0.44215993 1.39785989 -0.27446433
H -1.16379808 -0.07424335 -1.08901431
H 0.16113830 -1.26503306 -1.51863365
