10

N 0.9745557 1.421027 0.5543403
C 0.25860372 0.3200152 0.0984595
N 0.24268925 -0.025181836 -1.1836302
N -0.47437674 -1.143125 -1.1866146
N -0.93553996 -1.549679 -0.027167635
C -0.48334172 -0.6358238 0.82626516
H 0.5065019 1.947277 1.2770612
H 1.2538699 2.0242121 -0.20757054
H -0.64896846 -1.6555928 -2.0355637
H -0.6939935 -0.70312846 1.8844208
