11

O -1.4738477 1.6279391 1.2722667
C -0.7518127 0.84192157 0.69414705
N -0.75774425 0.56040484 -0.65132153
C 0.2223649 -0.42665154 -1.0346571
C 0.874386 -0.74440855 0.28584424
C 0.32461607 -0.02670393 1.2637888
H -1.3966452 1.0114825 -1.2822434
H 0.9499125 -0.031817943 -1.7565069
H -0.23754041 -1.3178767 -1.4794415
H 1.6774573 -1.4684045 0.37018922
H 0.56885326 -0.025884744 2.3179343
