11

O -1.0858519 1.3550694 1.9110086
C -0.57780135 0.85822576 0.9263163
N -0.22308286 -0.6835446 1.0171237
C 0.41349098 -0.030613566 -1.0485944
C -0.16049403 1.1523572 -0.34515774
C 0.31075984 -1.1325276 -0.05296393
H 1.4699999 0.066642694 -1.3445097
H -0.4088949 -1.2126577 1.8600583
H -0.12447262 -0.3446309 -1.9573665
H -0.2412876 2.1346543 -0.7846097
H 0.62763464 -2.162975 -0.18130499
