11

O -1.38067322 1.59236985 1.49175773
C -0.82188921 0.90042752 0.66497835
N 0.32649074 -0.05091551 1.20097926
C 0.21710383 -0.41868932 -1.02422037
C 0.86890945 -0.74280051 0.27429788
C -0.80923646 0.60444389 -0.67275799
H -1.47233421 1.06433590 -1.38924521
H 0.99709348 -0.07954493 -1.72410105
H -0.17822461 -1.35594264 -1.44748162
H 1.67689703 -1.44790177 0.44368265
H 0.57586296 -0.06578237 2.18211024
