10

O 0.62307656 -0.6169737 1.7681233
C -0.773919 0.28007892 -1.584441
C -0.36393633 -0.51106167 -0.44476098
C 0.33958927 0.15970401 0.68878067
N 0.26490715 -0.37291908 -1.8267459
N 0.6266341 1.3898598 0.6294919
H 0.43708098 -1.5454596 1.571028
H -0.8475247 -1.465314 -0.22894219
H -1.4329739 1.0016767 -2.0421026
H 1.1270659 1.6804085 1.4695684
