9

O 0.31711322 1.1810229 1.5688789
C -0.9393533 0.24403222 -0.30174616
N 1.0596392 -0.5966319 0.22722198
N -0.7293675 -0.8129051 -1.095683
N 0.5422756 -1.3330779 -0.7314995
C 0.15341361 0.32581997 0.55541795
H -1.8292142 0.8527237 -0.36225155
H 0.25617334 -0.84561944 -1.843272
H 1.1693202 0.9846358 1.9829334
