9

O -0.88842326 1.4329821 -1.10111
C 1.0499038 0.4056279 0.0080599375
N 1.2135557 -0.699832 0.72814924
N -0.9492232 -0.5742981 0.12089863
N 0.012745368 -1.2331371 0.76287365
C -0.30458385 0.47366533 -0.3661219
H 1.8649627 1.078614 -0.20571974
H -1.8254054 1.2134824 -1.1931387
H -0.17353192 -2.0971043 1.2461089
