10

C 1.3127843 0.1765702 -0.025141094
N -0.39407638 -0.837798 -0.18360355
N 0.8889315 0.33711666 -1.3991377
C -1.2910905 -0.011871657 0.46280375
N 0.7384011 -0.9297215 0.50649536
N -0.1948511 -0.28185952 -1.4960474
H -2.2232676 0.19514115 -0.05542842
H 2.3069663 0.51468515 0.24518853
H 0.17732191 0.9819166 0.40546387
H -1.3211194 -0.14417899 1.5394067
