10

C 0.73250896 -0.60265108 -1.47419380
N 0.43336572 -0.15753538 -0.28413368
N -0.86883916 0.04977457 0.16320287
C -0.71592812 0.56899672 1.42071211
N 0.54442699 0.57019288 1.74517100
N 1.27561266 0.12126220 0.72005321
H -1.58165857 0.26710404 -0.51436388
H 1.77939411 -0.71744410 -1.70316388
H -0.05609416 -0.94821153 -2.12665039
H -1.54278840 0.84851171 2.05336617
