10

C -0.00947154 -0.53371716 1.6030563
N 0.28357518 -1.3984799 -0.35243157
N 0.25431895 -1.6356698 0.9628337
C -0.0043773605 0.5608087 -1.6608671
N 0.039796982 -0.09318114 -0.5320608
N -0.2287758 0.47921255 0.7085274
H -0.12702954 -0.4218919 2.6687734
H -0.054807916 1.4635223 0.8322602
H -0.381311 1.5731003 -1.6747689
H 0.22808209 0.0062958645 -2.555323
