13

C 0.19895494 -1.5206413 -0.59916013
C -0.20547019 -0.05635096 -0.5822
O -1.5734079 0.13558376 -0.22931951
C 0.73697954 0.76744115 0.30182227
O 1.943605 0.62092364 0.25811005
N 0.09879017 1.6565942 1.1061999
H 1.2487307 -1.6148857 -0.8861961
H -0.42613262 -2.073534 -1.306342
H 0.08029972 -1.9716803 0.395517
H -0.11414739 0.3609959 -1.5906864
H -1.7563784 -0.43369338 0.52971226
H -0.8882753 1.8110268 0.9792959
H 0.6564517 2.3182201 1.6232466
