13

C -0.21123750 -1.10423709 0.83095110
C -0.32326846 0.26373207 -0.96907166
O -0.99898840 -0.76831478 -0.30662449
C 1.15262862 -0.43886697 0.56284216
O 1.04368751 0.03178785 -0.77655724
N -0.71013855 1.53290322 -0.38918127
H 1.99371574 -1.13468469 0.60717354
H -0.52220158 0.17429800 -2.04561843
H -0.15257687 -2.19493197 0.88601258
H -0.22631969 2.28731762 -0.86688464
H -0.67300327 -0.72293656 1.74833310
H -1.70764552 1.67667103 -0.52725927
H 1.33534794 0.39726218 1.24588437
