13

C 0.4974219 -0.29470927 1.339563
C 0.039111104 0.72880054 -1.2128999
O 1.3356129 -0.4807067 0.28312898
C -0.89600915 0.16520128 0.8448865
O -0.63588554 1.1417686 -0.18785025
N 0.02358835 -0.51020026 -1.7154945
H 0.5626688 -0.5566022 -2.5723746
H 0.51926863 -1.058721 -0.9097496
H -1.4646384 -0.65443826 0.39174578
H 0.36154774 1.5608946 -1.8362683
H -1.5074645 0.6906045 1.5806787
H 0.28665924 -1.2004533 1.9502538
H 0.87811905 0.46856135 2.0443802
