11

C 0.32856850 1.43605800 -0.62310332
C 0.06813821 0.04463574 -0.22999489
C 0.19980505 -0.18205204 1.26015336
O -1.22700667 -0.34216327 -0.78983985
C 0.35749539 -1.07682408 -1.16536948
N 0.60903362 2.51176478 -0.93824589
H -1.59184906 -1.04498516 -0.22676679
H -0.46876532 0.47359136 1.82695405
H 0.50575031 -0.60969690 -2.15531392
H -0.01047946 -1.23278406 1.47846298
H 1.22930958 0.02245575 1.56306400
