11

C -0.20094925 0.066021435 1.6503346
C -0.520223 0.96522135 -0.64816105
C 0.047561996 -0.13940987 0.2171991
O 1.4468459 -0.35592172 -0.07409703
C 0.15227604 -1.5406303 -0.25217947
N -0.43270156 0.239904 2.7645013
H -0.0035891305 -1.5582246 -1.3392097
H -0.24071284 0.78581065 -1.688706
H 1.4949781 -1.3793427 0.2696933
H -0.13364804 1.9406106 -0.33674887
H -1.6098382 0.975961 -0.56262636
