17

C -2.0170784 1.3817601 -0.073931985
N -0.14198536 0.07654987 -1.3594799
C 0.78472084 -0.61087656 2.13381
O -0.98847276 0.72477204 0.65837806
N 0.9503832 -0.4094259 0.7057684
C -0.057532128 0.10828117 -0.08810071
C 0.9185104 -0.5854646 -2.0876238
H -1.6019995 2.1568177 -0.7245467
H 0.983403 -1.6632901 -1.8630279
H 0.45371953 0.31839377 2.6018238
H -2.668408 1.8264264 0.68117183
H 1.7571275 -0.87951505 2.5552309
H 0.05991782 -1.3983104 2.3760233
H 1.9070582 -0.13941556 -1.8996466
H -2.5760899 0.6740099 -0.69239825
H 0.7148092 -0.49138385 -3.157623
H 1.5219162 -1.089329 0.23417318
