11

N 0.49458015 -0.5506032 -1.1058532
C 0.79783136 -0.77989894 1.1181297
C -1.229899 1.227799 -1.0599473
N -0.14019586 0.17929986 0.89688236
C 1.1784348 -1.2194972 -0.13156663
C -0.2896703 0.2843012 -0.45759407
O -1.919736 1.9670497 -0.3901632
H 1.9056569 -1.979993 -0.37864774
H -1.2528015 1.2020524 -2.162584
H -0.65758765 0.7349341 1.5600038
H 1.1133868 -1.0654436 2.1113403
