11

N 0.27439063 -1.29225708 -0.15958140
C 1.31059173 -0.88267642 0.62962178
C 1.20381552 0.46214881 0.91227081
N 0.07496667 0.87900755 0.27915403
C -1.68180743 -0.12959393 -1.13945568
C -0.45120324 -0.21159998 -0.35463989
O -2.29415273 0.90890348 -1.27187092
H 2.07619146 -1.57381896 0.95278421
H 1.82400839 1.12961007 1.49316198
H -0.34121164 1.79662628 0.24873684
H -1.99558944 -1.08634995 -1.59018162
