11

N 1.11272278 -0.03969208 -1.70947277
C 0.33355715 -0.05214444 -0.58023738
C 0.16907048 0.69829676 0.50327600
C -0.97418003 0.08398172 1.25867437
C -1.40668840 -1.12268146 0.45050360
O -0.59921189 -1.12741835 -0.59635130
H 1.98661054 0.45313911 -1.61584954
H 0.74268420 1.57047860 0.78125003
H -1.85130413 0.73785204 1.37687167
H 1.21155249 -0.94750897 -2.14276121
H -0.72481354 -0.25430289 2.27409665
