13

C 0.19978265 -1.5197759 -0.6026265
C -0.20830816 -0.054826993 -0.58371276
O -1.5735741 0.12981084 -0.22978751
C 0.7355622 0.7680985 0.30427343
O 1.9422002 0.61979777 0.26249775
N 0.09876779 1.6525759 1.1131072
H 1.2484493 -1.6121727 -0.8911962
H -0.42674604 -2.076435 -1.3069708
H 0.086867064 -1.9663578 0.39429662
H -0.1155257 0.36322272 -1.591258
H -1.757646 -0.43833765 0.5294529
H -0.8858144 1.815476 0.9756365
H 0.6559851 2.3189242 1.6262873
