13

C 0.27922672 0.24349406 -0.26792997
C -1.0955102 0.009537071 1.6289847
O 0.62089664 -1.4629618 -1.8595804
C 0.055841103 -0.9972186 -0.7188981
O -0.2418613 0.82267773 0.8490044
N 1.1468835 1.0931246 -1.0031897
H 0.6658566 1.9436905 -1.2854016
H -1.9799837 -0.3023653 1.0580457
H 1.1562074 -0.7333932 -2.210085
H -0.576059 -1.7254469 -0.22658002
H 1.9474859 1.3687568 -0.43764687
H -0.56970334 -0.8817119 1.9968128
H -1.4092804 0.6218172 2.476464
