10

O -2.3849864 0.95844924 0.404668
C -1.7697386 -0.055013135 0.62512964
C -0.35785466 -0.22540304 0.21072575
N 0.27413762 -1.3429769 0.4664069
O 1.5342275 -1.1757673 -0.029360736
C 1.6382899 0.049797136 -0.5775974
C 0.4713267 0.71664405 -0.46423802
H -2.2102163 -0.9225086 1.1518807
H 2.6051595 0.2875868 -1.0009205
H 0.1996545 1.7091918 -0.7866943
