13

C 0.3202926 1.1940084 1.4619714
N -0.3433689 0.37172416 0.45595342
C 0.047329113 -1.3617381 -0.99073213
O -1.3483942 -1.4371518 -1.2484552
C 0.5664229 -0.04733687 -0.7229045
O 1.610823 0.51783556 -0.9112794
H -1.4892164 -1.2263323 -2.1789937
H -1.2483128 0.7154891 0.15337028
H 0.66319966 -2.0033672 -1.6236024
H 1.0836202 0.58438003 1.9545557
H -0.40790844 1.5278822 2.205098
H 0.8128594 2.0517268 0.9992834
H -0.2673459 -0.8871203 0.44573477
