12

N 0.5148709 -0.86432755 1.326961
C 0.17270315 1.7418152 -0.85933393
C 0.04966369 -0.13234195 0.15214595
N 0.93947124 0.7649825 -0.5333613
C 0.30382913 -1.5971105 0.08994302
N -1.1895967 1.6638756 -0.4927024
C -1.2712516 0.53209406 0.123478144
H 1.1623323 -1.9018697 -0.50277483
H -2.1884677 0.14049187 0.5471587
H 0.52825797 2.6130555 -1.4004608
H 1.506001 -0.6636989 1.4465569
H -0.5278134 -2.2969658 0.10238977
