10

O 0.3871601 0.82015413 -0.9419651
C -0.32851717 -0.38147107 -1.1988682
C 0.5591335 0.9565042 0.39430994
O 1.0614457 1.9118662 0.90673757
C -0.0043784664 -0.29877487 1.0371704
O -0.2343054 -1.1739082 -0.04400615
H 0.71577215 -0.74757206 1.7264724
H 0.13758036 -0.91067255 -2.0327735
H -1.3688927 -0.12030903 -1.433181
H -0.92499816 -0.05581677 1.5861043
