10

O -0.70583826 2.2151573 0.6586636
C -0.61225307 -0.27158242 0.9119063
C -0.48564824 1.0731287 0.53179497
O -0.39714426 -1.18108 -0.07675279
C 0.5100141 -0.505887 -1.0262052
O 1.0350341 0.59085876 -0.36894605
H 0.7893008 0.12270203 0.8814754
H -0.080943465 -0.19474684 -1.8965715
H 1.2620146 -1.2506452 -1.2882072
H -1.3145362 -0.5979052 1.6728421
