11

O -1.7792472 -0.6431606 0.017497957
C -0.5759486 -0.44518417 -0.674751
C 0.6183045 -0.2627192 0.2726998
O 1.8343688 -0.10601539 -0.40950817
C 0.33832586 0.88252825 1.1737549
N 0.08000544 1.8070756 1.8205318
H 0.72149503 -1.1575028 0.89016825
H -1.9979163 0.16202535 0.50298655
H -0.39180124 -1.3403091 -1.2726396
H -0.6207916 0.42047265 -1.3577332
H 1.7732055 0.68278944 -0.9630074
