12

C -1.40029435 -0.34349260 0.14213782
N -0.21998679 0.40780116 -0.23847682
C 0.95424205 -0.04534514 0.25997344
N 1.09188678 -1.26439460 0.84922064
C -0.39023397 1.48021637 -0.99020144
O -2.49930364 -0.06705944 -0.24935172
H -1.40608553 1.75673147 -1.23752453
H 0.45858987 2.11561824 -1.19769152
H -1.17855678 -1.15040535 0.86277890
H 1.93359573 -1.38582306 1.38478955
H 1.81244747 0.59466655 0.08459621
H 0.84369908 -2.09851363 0.32974915
