10

O 1.7150829 -1.7761914 0.8277149
C 1.153486 -1.4674498 -0.1968016
C 0.19834334 -0.34017858 -0.26057467
N -0.3917277 -0.04080682 -1.3911905
O -1.1931388 1.030435 -1.1218814
C -1.0690398 1.3599223 0.17798312
C -0.19904754 0.5301727 0.7945566
H 1.3153526 -2.0026321 -1.1506829
H -1.6634934 2.2031052 0.5007144
H 0.13418263 0.5036236 1.8201619
