10

O -0.018672667 -1.378318 -0.9553315
C -0.4057384 -0.3877356 -0.0485353
C 0.6860569 0.009643626 0.94500685
O 0.6317728 1.3894477 0.4723625
C -0.26175034 1.0721252 -0.50436395
O -0.6915424 1.7672561 -1.3700634
H -0.6551632 -1.3954722 -1.6799167
H -1.3843727 -0.58248127 0.41276258
H 1.654661 -0.4425942 0.7224731
H 0.44474918 -0.051871702 2.0056057
