10

O 0.48951957 -1.5026784 -0.5570421
C 0.8143837 0.7535145 0.36010316
C -1.0382557 0.47913983 -0.43043768
O -0.25146112 1.569253 -0.21220984
C -0.0585782 -0.4962139 0.2441631
O -2.0951362 0.4252251 -0.9752283
H 1.0714436 1.0930736 1.3638116
H -0.4368819 -0.8700451 1.2059703
H -0.18066476 -2.1814568 -0.7027642
H 1.6856312 0.730188 -0.29636598
