9

O 0.8411117 -0.8881352 1.3196733
C 0.24015543 -0.28452328 0.28183684
N -1.0325894 1.1201245 -0.8840888
N -0.5781041 0.7847427 0.34733668
N -0.51759785 0.2787383 -1.7130094
C 0.27562764 -0.6052781 -1.0512332
H -0.89231265 1.3141506 1.1454734
H 0.81522304 -1.3961192 -1.5479
H 0.8484862 -0.3237004 2.1019113
