9

O 1.65595147 0.63095423 0.31226922
C 0.03773255 -0.51914741 -1.12981668
N -1.26446082 -0.87144785 -0.96006321
N -1.68229270 -0.48391700 0.19557200
N -0.63870376 0.12974460 0.80367407
C 0.44909797 0.12772821 0.00752587
H 1.60781024 1.23876046 1.05979267
H 0.59255216 -0.73665908 -2.02877977
H -0.75768710 0.48398388 1.73982548
