9

O 1.6795115 0.9312289 0.60479796
C 0.5628522 0.30860755 0.19418752
N 0.42723137 -0.24661168 -0.9992403
N -0.80896646 -0.72840387 -0.95687896
N -1.4776821 -0.5312433 0.15771797
C -0.6237935 0.1365647 0.9270982
H 2.323733 0.8941278 -0.11488774
H -1.2087545 -1.2198261 -1.7397883
H -0.8741315 0.45555604 1.9269933
