11

C -1.1438769 -0.31240138 0.70437056
N -0.059719387 0.66104925 0.6361936
C 1.103569 0.18413875 -0.079993494
C 0.8352974 -0.17106898 -1.496686
N 0.55628705 -0.42064583 -2.5889068
H -1.5170323 -0.6400819 -0.2782784
H -1.9731605 0.12612216 1.2660662
H -0.79847825 -1.1957463 1.2545538
H -0.3899625 1.521058 0.2133129
H 1.8848695 0.9497981 -0.057893153
H 1.5022067 -0.7022219 0.42726102
