12

O 0.4020947 1.1767355 -2.1671576
C 0.7563801 1.2903422 -0.8129811
C 0.20995489 0.17103569 0.020250205
N -0.74688137 -0.6136434 -0.43275288
N -0.9807211 -1.4192901 0.6235771
C -0.16593912 -1.0940399 1.6431885
N 0.60398 -0.086367235 1.2996132
H -0.48650482 0.7997376 -2.205849
H 0.4078117 2.2411642 -0.37656263
H 1.8487163 1.2878287 -0.7498157
H -1.6769155 -2.1438797 0.5651298
H -0.17197573 -1.6096231 2.59336
