12

O 0.33389288 0.46724027 2.609165
C -0.46378547 -0.15327653 -1.8848795
C 0.5214333 -0.21834481 1.4028034
N -1.0634431 -1.120388 -1.3333774
N -0.14314193 1.7141113 -0.2354781
C 0.27916232 0.6241186 0.20631017
N 0.5178422 0.5902534 -1.1762973
H -0.56570846 0.16850978 -2.926191
H 1.5277635 -0.65615034 1.3066939
H 0.94638187 1.2118384 2.6464047
H -1.6847827 -1.5919511 -1.9894979
H -0.20561463 -1.0359609 1.3743436
