12

O -2.4576323 1.0636528 0.90281045
C -1.7503786 -0.0147276735 0.36972454
C -0.278339 0.22453058 0.21689147
N 2.4960265 0.3555673 -0.687344
N 0.56814 -0.8433384 -0.10745724
C 1.748204 -0.6867063 -0.72570294
N 0.46866065 1.1776191 0.4713756
H 3.2928717 0.25623202 -1.3128468
H -1.8447312 -0.9405152 0.9557189
H 2.0278084 -1.6121281 -1.244548
H -2.1235042 1.2302215 1.7917707
H -2.1471264 -0.21040761 -0.63039273
