12

O 1.41692944 1.67376156 1.52590086
C -1.26131401 -1.05671641 -1.04105647
C 0.13655454 0.65749701 -0.24304347
N -0.34230365 -0.02501787 -1.37201940
N -1.17816710 -1.66488342 0.06450579
C 1.18444543 0.50223791 0.79515456
N -0.76097247 1.38407939 -0.72066796
H -1.95796770 -1.27782246 -1.85594917
H 1.70375306 2.36952458 0.92207806
H 2.08989243 0.11360034 0.30247033
H -1.86218992 -2.41822976 0.12375824
H 0.83134000 -0.25803042 1.49886853
