9

O -0.22676641 -1.0278223 1.8584633
C -0.009246815 0.28941786 -0.1401679
C -0.18080863 0.30450892 -1.3264531
C 0.2103115 0.19379891 1.3111788
C -0.5438169 0.3208453 -3.8055015
N -0.37103853 0.32026616 -2.6382468
H -0.36429358 0.971713 1.8223981
H 0.21128722 -1.7525431 1.3964121
H 1.2743722 0.37981522 1.5219177
