9

O -0.83885604 0.4657365 -1.8301703
C 0.23887675 -0.26718408 0.18602946
C -0.08348721 -1.4882337 2.5772574
C 0.0787192 -0.7791937 1.2688249
C 0.3758764 0.3647275 -1.1316392
N -0.2051307 -0.34948245 2.9584868
H 1.039334 -0.24033514 -1.7548798
H 0.8619336 1.3437492 -0.9908981
H -1.4672661 0.9502157 -1.2830111
