9

O -1.3213265 -0.65871084 0.8853657
C -0.599707 0.29935414 0.1556379
C 0.8599535 0.19542542 0.33656588
C 2.043306 0.0736458 0.5057395
C -0.9297662 0.23361363 -1.2944425
N -1.202359 0.15239738 -2.4127238
H -1.0003989 -1.5363326 0.64021367
H -0.94606405 1.2677838 0.5278696
H 3.096362 -0.027176771 0.6557745
