10

O 1.14750362 -0.85367146 -1.55154409
C 0.40267575 0.08173281 0.57889687
C 0.76980759 0.02565602 -0.81652237
O 0.30350254 1.29397039 -1.12559090
C -0.49539989 1.22937156 0.09496839
O -0.30639761 -1.35407918 0.75845337
H 0.10010069 -1.70526013 1.56342966
H -0.45006942 2.16087866 0.66135505
H 0.05805277 -1.84865811 -0.01319548
H -1.52977612 0.97005950 -0.15025039
