10

O 0.74854726 1.2287681 -0.9814448
C 0.14812475 1.2736416 0.34884173
C 0.6001765 -0.14875858 -0.93681896
O 0.44298992 -0.9336348 -1.8398083
C 0.4539794 -0.22371122 0.49780077
O -0.8185903 -1.2050263 0.6168331
H -0.90748334 1.5512547 0.27182415
H -0.5387044 -1.855349 1.2766058
H -0.8120309 -1.6400169 -0.26838693
H 0.68299097 1.9528322 1.0145537
