10

O 1.3171768 -0.91371304 0.49064058
C 0.40646347 0.13857904 0.3641599
C 0.007453419 0.4459265 -1.0783864
O -1.3912925 0.1834802 -0.7589874
C -1.0830232 -0.20556971 0.50675154
O -1.8031856 -0.658889 1.339763
H 1.3274372 -1.1999122 1.4117057
H 0.6877471 1.0237958 0.9512952
H 0.38723248 -0.28283644 -1.7966107
H 0.14399076 1.4691389 -1.4303313
