11

N -0.87506884 0.988683 -1.3420002
C -0.2807571 0.23980685 -0.31078663
C 1.0149704 0.30258986 0.15375118
N 1.078529 -0.55793613 1.2072344
N -0.07575655 -1.1761434 1.4533796
C -0.9108973 -0.7005342 0.54172367
H -1.5607154 0.45723444 -1.8607284
H -0.19330987 1.3657271 -1.9868847
H 1.8701566 0.8791917 -0.16917215
H 1.8719286 -0.7582391 1.7918439
H -1.9390798 -1.0403801 0.5216396
