11

N 1.27761354 0.93181509 -0.12355324
C 0.01575591 0.72312390 -0.64328740
C 0.29098423 -0.75946101 1.09582699
N 1.39776692 -0.07299399 0.83726137
N -1.94941283 -0.65620626 0.00081690
C -0.61247806 -0.24562827 0.08868849
H -2.30601155 -0.71307838 -0.94477130
H -0.32335357 1.33435784 -1.46955794
H 2.06962312 1.03930706 -0.74518661
H 2.21636066 -0.04447819 1.42281037
H -2.07684864 -1.53675777 0.48095265
