13

C -0.54860485 0.025266478 1.7058058
C 0.027532103 0.16750267 0.33035144
N 1.1385218 0.7882007 0.2351926
O 1.5597892 0.87612426 -1.1078708
C -0.7167882 -0.41672087 -0.8573933
O 0.06152376 -1.3118427 -1.6108593
H 0.080431625 0.530496 2.440754
H -1.5585786 0.45146382 1.7472322
H -0.6341739 -1.0338362 1.9732834
H 2.418086 1.3065362 -1.0301282
H -1.0998931 0.41635543 -1.4683638
H -1.581814 -0.98164564 -0.49286625
H 0.85396826 -0.81790024 -1.8651378
