13

C 0.4678918 0.056408335 0.2629259
C 0.57034284 0.47708616 -1.1850518
N 1.5155842 0.26603127 1.1669446
O 0.10479985 1.164652 1.1818931
C -0.47428823 -1.1046448 0.5286424
O -1.7148467 -1.0154126 -0.13746528
H -2.2080348 -0.2981253 0.27976653
H 1.1353947 1.411218 -1.2699834
H 1.1422123 -0.2942044 -1.7132072
H 0.019337077 -2.0039186 0.14692833
H -0.4133821 0.5685915 -1.6580637
H 0.43286723 1.9862161 0.7786516
H -0.57787776 -1.2138976 1.618019
