10

O -0.24532543 -1.1262699 -1.1631514
C 0.5473596 0.04021505 -0.8625513
C 0.38058966 -0.25215584 0.6498819
O -0.63219625 0.8927062 -0.80811346
C -0.94420224 -0.3695016 -0.15506797
O 0.5451781 0.7478967 1.5747149
H 1.3749821 0.31213078 -1.5169942
H 0.14279644 1.5450026 1.1900673
H 0.8141774 -1.1802002 1.023404
H -1.9833593 -0.60982364 0.06781005
