10

O 1.2520976 -1.3850634 0.99083114
C 0.3576869 -0.9478997 0.012625962
C -0.020293156 0.49681333 0.22226939
O 0.41880044 1.1466923 1.1480097
C -0.9805273 1.1510259 -0.7580765
O -1.4524162 0.5585162 -1.6926007
H 1.4067273 -0.63828635 1.5842993
H 0.7840513 -1.0498422 -0.99629784
H -0.5668924 -1.546064 0.017893467
H -1.1992346 2.2141078 -0.52895397
