10

O 1.4313987 1.0629531 -0.16456763
C -0.39174768 -0.21751434 0.9060879
C -0.5355254 -0.3394221 -0.8800439
O -1.065552 -1.3006567 -0.191902
C 0.75759894 -0.13218057 -0.10965344
O -1.1055135 0.82892483 0.5276984
H -0.8806007 -0.03639994 -1.869116
H 0.75183713 1.7270393 0.05027358
H 1.4493843 -0.973102 -0.19392088
H -0.41127953 -0.6196416 1.9251438
