9

O -0.53103169 1.42600197 1.26659579
C -0.32149210 -0.52014474 -1.61629519
N 0.52346753 -1.10440278 -0.74780666
N -0.83753395 0.58462957 -0.91073859
N 0.46018288 -0.52644624 0.52392176
C -0.33651830 0.55287098 0.28239683
H 0.88353801 -2.04159236 -0.81843319
H -1.12533988 2.10595942 0.91339662
H 1.28472749 -0.47687568 1.10696272
