9

O -0.83096784 0.50106466 -1.8538506
C 0.77745646 0.48499304 1.229353
N -0.5945723 -0.88453937 0.023668658
N 0.43394816 1.1168884 0.02241527
N 0.17784412 -0.7135904 1.1373849
C -0.34416276 0.20564082 -0.64506876
H -1.4064691 -0.2279926 -2.1215622
H 1.6115397 0.95568913 0.36933285
H 0.1753834 -1.4381535 1.8383268
