10

N 0.90683687 1.9248556 -1.8475164
C 0.35432962 1.0774735 -1.285768
C -0.32652894 0.021368362 -0.5736046
C -0.4841275 0.12219676 0.92766166
C 0.46483758 -0.87759566 0.35073432
H -1.1425999 -0.4320892 -1.1287972
H -1.4234235 -0.22610742 1.3431633
H -0.07038023 1.0007794 1.4116263
H 0.19208632 -1.9273891 0.3625881
H 1.5289698 -0.6834924 0.4399127
