10

N -0.07132755 -2.0372782 -1.7993842
C -1.5664957 0.7397984 0.71374947
C -0.20879756 0.2005092 0.8670774
C 0.72256875 -0.009937509 -0.33697549
C 0.2799565 -1.1395655 -1.164292
H -0.1588368 -0.6245904 1.5872246
H -1.6440113 1.0949641 -0.336822
H 0.15460816 1.0892408 1.4505966
H 0.7392274 0.89019614 -0.9655561
H 1.7531081 -0.20333722 -0.015618391
