10

N 0.70361760 0.18720182 -2.61978074
C 0.59103120 0.53472436 -0.02255660
C -1.62981271 -0.75649941 0.53110074
C -0.17321176 -0.61319188 0.65545178
C 0.65203733 0.35015156 -1.47810761
H 0.09542271 1.49303400 0.18151823
H -1.99519509 0.17786588 0.05223856
H -0.21616815 -0.41228959 1.76007627
H 0.35505618 -1.57111400 0.58323257
H 1.61722281 0.61011711 0.35682699
