11

O -1.53161126 -0.08377280 0.93967532
N 0.96410772 -0.14076554 0.93247674
C -0.34169362 -0.10267503 0.25915650
C -0.06918628 -0.55139564 -1.17733555
O 0.92210750 0.50637258 -1.31788560
C 0.63596670 0.94878196 -0.01149612
H -1.61450970 -0.90461830 1.44310272
H -0.91634998 -0.37657258 -1.84641649
H 0.37051534 -1.54115558 -1.33342206
H 0.84237772 0.24699050 1.87292563
H 0.73827559 1.99881049 0.23921907
