11

N -1.49971500 -1.72865007 -1.28565791
C 1.43099990 0.56976797 0.44750255
C -0.02217552 0.92166199 0.66408957
C -0.67445863 -0.97542946 -0.71957474
C 2.07824181 -0.35443877 -0.19898436
O -0.99053793 0.10971433 0.01917107
H 2.16071460 1.22743697 0.93929942
H -0.23735194 0.88740604 1.73860929
H -2.45528638 -1.42394429 -1.11180224
H -0.19493317 1.94679586 0.31857031
H 0.40450238 -1.18032058 -0.81122305
