11

N 0.77982455 2.1519032 -0.8591128
C -0.0011091551 -0.8022786 0.97124577
C 0.36401087 1.049444 -0.430861
C -0.7634945 -1.2128137 -0.25762737
C -0.8688641 -0.49328917 -1.3565048
O 0.5798455 0.47761795 0.74795926
H -1.2633853 -2.1817057 -0.22888145
H 1.3631109 2.6417987 -0.17751138
H -0.34925538 0.58644265 -1.4581802
H 0.8121245 -1.4984146 1.2022648
H -0.6528078 -0.7187047 1.8472093
