10

O -0.45305756 1.6303122 1.3518214
C -0.27838147 -1.4396392 -0.0147438655
C -0.08282121 0.82714564 0.43491635
N -0.5245746 -0.39256138 0.78704715
N 0.38245174 -1.3352034 -1.1464938
C 0.6402329 0.94464624 -0.78345
N 0.8403158 -0.12467627 -1.5140938
H 1.03401 1.889699 -1.1388546
H -0.9177917 0.42004818 1.7424779
H -0.64038396 -2.4197712 0.28137338
