10

O 1.448348 -1.2714725 0.8702912
C 0.5468029 -0.45678213 0.32252097
C 0.8825364 0.8958472 0.08451492
N 0.0064814836 1.71294 -0.4544737
N -1.208392 1.2589018 -0.7781639
C -1.4657011 -0.012312145 -0.5335555
N -0.6391202 -0.920544 0.011532319
H 1.0308573 -2.145262 0.9486247
H 1.858105 1.297674 0.33422485
H -2.4599175 -0.35898992 -0.8055158
