10

O -1.3112428 -1.4480195 -1.2204297
C -0.63517386 -0.61497074 -0.6582956
C 0.71418405 0.12285084 1.1909313
N -0.045032732 -0.83145416 0.58180374
N 0.956128 1.2888596 0.7045335
C -0.3138964 0.73000026 -1.1454921
N 0.41214445 1.595489 -0.51971644
H -0.19834392 -1.7302299 1.0187529
H 1.1371182 -0.134994 2.1575
H -0.7158849 1.0224684 -2.109588
