10

O -0.84889086 -2.12598609 0.25521350
C 1.13754277 0.77858013 0.20803408
C -1.29662113 0.10354452 -0.50163286
N -0.89094743 1.31715697 -0.67591686
N 0.38189612 1.68249756 -0.30832582
C -0.49806918 -0.98011227 0.07933993
N 0.76750002 -0.51613604 0.41998441
H 1.41006025 -1.17912712 0.83203525
H 2.14645142 1.05130254 0.50356433
H -2.30892168 -0.13171990 -0.81229590
