9

C 1.2887132 -0.29714924 -0.31805557
C -0.31620175 -0.42844406 0.034147512
C -1.493519 0.46167168 0.25285232
C 0.20030934 -0.96188265 -1.0965676
O -2.5881095 0.23671782 -0.1921818
H -1.2789096 1.3554971 0.875821
H 1.7323006 0.60178643 -0.7419702
H 1.9463809 -0.890259 0.31889346
H 0.50903565 -0.07793808 0.8670609
