9

C -0.00022056 0.25972022 -0.81828018
C 0.04822911 -0.69483802 0.08436675
C -0.11499915 1.68665355 -0.44221417
C 0.10008573 -1.64707101 0.96693390
O -0.17474683 2.10141923 0.69347551
H 0.04198460 0.01828286 -1.87815566
H -0.14339451 2.37980538 -1.30969114
H 1.05113037 -1.98368725 1.37017189
H -0.80806892 -2.12028489 1.33339331
