11

N -1.80788907 -0.80624532 1.03398088
C 0.51140433 0.82082141 -1.16953337
C -0.74681697 -0.41667976 0.46365817
O -0.74047287 0.24357088 -0.71280712
C 0.57250959 -0.62890943 1.10875241
C 1.62836444 -0.18039053 -0.90549042
N 1.58809123 -0.44689889 0.37389000
H -2.63543922 -0.52298981 0.51265969
H 0.65895832 1.77441999 -0.64413718
H 0.61046235 -0.83106323 2.17259958
H 0.36082783 0.99436480 -2.23357253
