10

N -1.7733613 -0.3950443 -1.1600521
C 1.6163973 0.28537828 -0.6255485
C -0.30271903 -0.092012845 0.8144902
C -0.68338424 -0.13737442 -0.6181801
C 1.1451371 0.13599238 0.8127104
O 0.23871396 1.1931765 1.1240036
O 0.5172566 0.17289661 -1.3451996
H 1.820922 -0.17249905 1.6023049
H -1.7043179 -0.37661695 -2.1758249
H -0.8746446 -0.61389613 1.5712957
