10

N 0.60026443 0.7371586 -1.9355822
C -0.4434185 -0.90397495 1.020839
C 0.107393384 0.4625013 -0.80543
C -1.1603343 0.43338898 1.0756705
C 0.5748626 -0.6322721 0.059461884
O 0.228063 0.273776 1.5881655
O -0.9551666 1.0495473 -0.19026193
H -0.55199665 -1.7674006 1.6629361
H 1.4962354 -1.1763561 -0.11912303
H 0.1040974 1.5236316 -2.3566754
