10

N -1.5379905 -1.422216 0.7504246
C -0.680523 -0.6407513 0.26606357
C 0.14169297 0.33522928 1.008909
C 0.9260988 0.9656011 0.13670112
C 0.6386483 0.41961047 -1.2170714
O 1.1055984 0.6921138 -2.2807968
O -0.34266376 -0.5482069 -1.0707431
H -1.9719399 -1.9931221 0.024826651
H 0.05790113 0.45258924 2.081795
H 1.6631775 1.7391527 0.29989126
