10

O -0.37852216 1.6410456 -1.2184181
C -0.16848645 0.60861874 -0.35489854
C 0.5151934 -0.5733328 -0.53437084
N 0.40750784 -1.2378306 0.6497797
N -0.28913918 -0.5708992 1.5687871
C -0.649315 0.5576126 0.9729583
H -0.03392837 1.400445 -2.0859597
H 1.0511084 -0.9815056 -1.3787413
H 0.78468037 -2.1396992 0.8820144
H -1.239099 1.2955455 1.498849
