10

O -0.7616633 -0.24707884 -1.513078
C -0.32725093 -0.3347077 -0.17765617
C 1.1514481 -0.580932 -0.056315884
N 1.727881 0.25103754 0.72147584
N 0.74705225 1.2185546 1.173863
C -0.38325092 0.9191853 0.65822875
H -1.2720848 1.5065337 0.8653659
H -1.7255402 -0.19995892 -1.5160934
H 1.6894672 -1.3935273 -0.5340906
H -0.84605825 -1.1391065 0.37830034
