10

O 0.05242874 1.08722694 -1.32127693
C -0.23324359 0.02635406 -0.44225222
C 0.96067290 -0.84592937 -0.16732361
N 1.17107347 -1.01525456 1.08026155
N 0.20706601 -0.22747956 1.82381290
C -0.55248352 0.37345904 0.99012038
H -0.77539654 1.53390588 -1.53684896
H 1.57070391 -1.32518401 -0.92641617
H -1.04206943 -0.62591080 -0.82390311
H -1.35875211 1.01881243 1.32382618
