10

O 1.3069972 -1.1108041 -1.2520032
C -0.94942063 0.30686396 1.0140853
N -0.7734399 1.3441249 0.17970312
C -0.2717004 -0.8261056 0.58452773
C 0.44020826 -0.3892843 -0.5312816
N 0.1538131 0.8831855 -0.84091693
H -1.583051 0.42507386 1.8818877
H 1.5857425 -0.5771973 -2.009501
H 0.37201273 1.7673321 -0.030293824
H -0.28116164 -1.8231893 1.0037925
