10

O 0.060955096 -1.4483854 1.665362
C 0.037983447 -0.47641188 0.7393656
N 0.13565943 0.8023757 0.9509182
C 0.05692717 1.3642985 -0.31234556
C -0.087832436 0.4063856 -1.2670281
N -0.09958572 -0.7989481 -0.56724465
H 0.16389093 -0.9970241 2.515335
H 0.10838844 2.4358728 -0.44591853
H -0.18279439 0.44263113 -2.3401585
H -0.19359194 -1.7307944 -0.93828547
