10

O 1.4302875 -1.7165235 -0.15353487
C -0.76470155 -0.6903669 0.24998045
N 1.0478281 0.57268125 -0.30221367
C 0.61053264 -0.6501052 -0.07339873
C -1.1458273 0.63058746 0.2014466
N -0.04730549 1.3423141 -0.12786439
H 2.3036983 -1.3787004 -0.39820665
H -2.0996222 1.1073761 0.37417847
H 0.03525313 2.3371406 -0.25033394
H -1.3701433 -1.5544035 0.47994667
