11

C -0.45159173 -0.8975234 1.237991
C -0.06009559 0.34350133 0.61110175
C 0.6281634 1.2813714 -1.6629701
O 0.45540497 -1.0065136 -1.2841265
C 0.39848635 0.17949729 -0.7847865
N 0.7976635 2.2149627 -2.321915
H -0.35883573 -0.99574065 2.3127723
H -1.0522008 0.82823014 0.38042712
H 0.52946466 1.0753231 1.173325
H 0.37805897 -1.5661255 -0.44012788
H -1.2645179 -1.4569823 0.7783088
