11

C 1.5726717 -0.20949912 0.7814861
C -0.49314803 0.062471963 -0.5943461
C -1.5817182 -0.93781817 -0.51242125
O -1.108587 1.2992055 -0.87005925
C 0.28548676 0.08809453 0.69966584
N -2.404973 -1.7447319 -0.43781197
H 0.17139646 -0.24358194 -1.4179804
H 2.1502328 -0.52156216 -0.08810713
H 2.1119835 -0.16134608 1.7228738
H -0.4119665 1.9674624 -0.851696
H -0.29137832 0.40130523 1.5683962
