9

N -1.6091844 2.0346625 -0.19747698
C 0.5196115 -0.6466274 1.0845387
C -0.5459711 -0.337926 0.072447345
C -1.1410514 0.98155445 -0.11041167
N 0.84045607 -0.4088519 -0.41753048
H 1.1118379 -1.2319865 -0.9433407
H 0.7981503 0.29702753 1.5718565
H -1.1921685 -1.1449751 -0.26710373
H 1.2183197 0.4571225 -0.7929792
