9

N 0.18330071 0.42164354 -0.91459037
C 0.01286554 -0.63952693 0.09147034
C 1.36537995 0.00732701 0.00558392
C -0.98964151 -0.30589126 1.09757844
N -1.74056382 -0.03479476 1.93327444
H -0.38625816 1.25253519 -0.77720016
H 1.40420573 0.79812499 0.76629296
H 0.26422423 0.14073954 -1.88527022
H -0.11351288 -1.64015718 -0.31713934
