11

O 0.55130416 1.4805107 -0.35137668
N -1.0404978 -0.83884084 1.0641946
C 1.0387225 0.40055513 0.45629478
C -0.50677526 0.66190594 -0.86717427
O -1.3256421 -2.0065906 1.1373138
C -0.07455487 -0.5476095 -0.019064756
H 0.21875116 -1.459186 -0.5452737
H 2.0513434 0.09496072 0.16885458
H 1.0069283 0.64060265 1.5245659
H -0.4249696 0.5099913 -1.9497197
H -1.4946103 1.0637008 -0.6186145
