11

O -0.78276849 -1.44033495 2.09521463
N -0.81572267 -0.43197113 1.43763603
C 0.07426118 -0.48455479 0.25591018
C -0.63472836 -0.00097127 -1.02178800
O 0.14983383 1.19777357 -1.07805472
C 0.87896259 0.81594772 0.09616593
H -1.70162668 0.21249742 -0.89850688
H -0.47892129 -0.64139257 -1.89772153
H 0.61678796 -1.43185533 0.20919426
H 1.94550622 0.66966332 -0.10998074
H 0.74841538 1.53519817 0.91193126
