10

N -1.0495863 0.26310045 0.36114132
C -0.6590545 -0.9675265 -0.09974171
C 0.6690939 -0.8862065 -0.43788803
C 1.0942395 0.44539204 -0.1698209
C 0.011212492 1.1295214 0.3222564
H -1.9751204 0.49417496 0.68070763
H -1.3565339 -1.7911075 -0.14605665
H 1.2754022 -1.6884662 -0.8343064
H 2.0857034 0.84671503 -0.32405147
H -0.09535667 2.1544025 0.64775985
