10

N -0.66320189 -0.68136237 -0.21775777
C -0.89160152 0.63705705 0.41185806
C 0.63546415 -0.78318031 -0.44252589
C 1.31724971 0.37073123 -0.01829141
C 0.44077661 1.31364469 0.52668811
H -1.34904579 0.50343968 1.39908668
H -1.34405923 -1.39017186 -0.43831822
H 1.03850979 -1.68220079 -0.90048057
H 2.39275321 0.48196463 -0.11734219
H -1.57684531 1.23007773 -0.20291676
