12

N -0.19779375 -0.37210342 -1.3853023
C 0.99823815 -0.24471526 -0.6564087
C -1.1933298 -0.13150883 -0.5168538
N 1.3530809 0.2552234 1.7662239
C 0.59292525 0.067129 0.6091786
O -2.4662652 -0.18091561 -0.93860435
N -0.78546613 0.13995929 0.69215685
H -3.016179 0.010893902 -0.16682425
H 2.238961 0.7092691 1.5976171
H 1.9644953 -0.40878752 -1.1040149
H 0.8158746 0.7519732 2.4639106
H -0.30454057 -0.59641737 -2.3610787
