12

N -0.89390837 -0.27551522 -1.10528958
C 0.48737016 -0.01109546 -1.11784811
C -1.26154635 -0.28689112 0.18617993
N -0.28152549 -0.05852808 1.01633889
C 0.82126084 0.11290869 0.19986832
O -2.54423315 -0.51529236 0.50746881
N 2.07224028 0.32428190 0.78496809
H 1.05598035 0.03287542 -2.03199958
H -1.50013050 -0.42693703 -1.89485742
H -2.59154764 -0.48978897 1.47284517
H 1.96583927 0.65778280 1.73342667
H 2.67020018 0.93619941 0.24889884
