10

C -1.083278 0.24410963 -0.25209522
C -0.31845212 -0.5970954 -1.0480173
N 0.95076567 -0.89178073 -0.76336646
C 1.443814 -0.32680887 0.33594367
N 0.81181943 0.4942755 1.1730508
C -0.45587912 0.7728356 0.86787075
H -2.114462 0.47541595 -0.4917497
H -0.7309061 -1.0537534 -1.946642
H 2.478984 -0.56021345 0.5791016
H -0.9824054 1.4430149 1.5459042
