10

C -1.17845960 -0.62459381 -0.25462116
C 0.10263907 0.04412448 -0.71124611
N -1.38544138 0.00043516 0.84697295
C 1.29970330 -0.38466683 0.11951705
N 1.05719737 0.24583544 1.20956335
C -0.17165872 0.82023378 0.59010115
H -1.79070228 -1.41607368 -0.68260305
H 0.21535811 0.45534975 -1.71440064
H 2.14543596 -1.04098245 -0.08065896
H -0.29407147 1.90033790 0.67737576
