10

C 0.67341626 -0.45617113 -0.11854846
C 0.8426463 0.9037191 0.39378044
N -1.5432584 -0.030588578 -0.6048759
C -0.47204334 -0.66371953 -1.0038146
N -0.29249582 1.4577926 0.72962326
C -0.9458075 0.24486174 0.6176621
H -0.45865124 -1.2801187 -1.9015119
H -1.0876728 -0.41571912 1.4758728
H 1.4878147 -1.1789497 -0.08448219
H 1.7960517 1.418893 0.49629453
