10

C 0.104415596 0.97202784 0.30778053
C 0.45293528 -0.31482446 -0.46269646
N 0.1599069 0.23103574 1.6006864
C 0.47155523 -0.8372634 0.96338314
N -1.2563039 0.98657876 -0.291846
C -0.9564258 -0.06631678 -0.9615447
H 1.2892417 -0.4707781 -1.1441661
H 0.6570616 1.9112964 0.26798582
H 0.66902906 -1.8188468 1.3918484
H -1.5914155 -0.592909 -1.6714311
