10

N -0.8246028 0.87157273 1.3531747
C -0.17111436 0.17617512 0.35080263
C 0.34811252 -1.0666835 0.21253154
N 0.9855417 -1.1466993 -1.0276715
C 0.81396174 0.008858625 -1.5530951
O 0.11485262 0.88287514 -0.77211595
H -1.5025514 1.5364765 1.0053365
H -1.2336537 0.26751772 2.050831
H 0.32704395 -1.9047666 0.8947388
H 1.1424096 0.3746734 -2.5145328
