11

N 1.5231583 0.78556424 -1.0840249
C -1.0818067 -0.8292995 -0.12224734
O -0.004909215 -1.4191407 0.41056135
C -1.015065 0.52960736 0.51979524
C 1.2492001 0.4331922 0.08880392
O 0.100022845 1.0970315 0.68522793
H -1.1097702 -0.6915332 -1.2297957
H -2.0750484 -1.2418066 0.15889631
H 1.8271942 -0.039738435 0.8716362
H -1.8113157 1.0202532 1.0824643
H 2.3983395 0.3558699 -1.3813174
