11

N 0.52350387 1.18720458 1.13377664
C -0.47628667 -0.85382732 -0.63336828
O -0.52861303 -0.85043913 0.76655639
C 0.37369421 -0.03277977 -1.48937823
C -0.09461805 0.16603458 1.53145971
O -1.04013499 0.19787943 -1.33730605
H 0.66855049 -0.42579558 -2.46208009
H -0.78192860 -1.85171577 -0.94435845
H 0.99427099 0.73944829 -1.05289579
H 0.72751003 1.79342429 1.92227936
H -0.36594790 -0.06943348 2.56531466
