10

O -0.87951994 0.90447915 -1.7857606
C 0.9478322 0.58673316 -0.20938744
C -0.17972526 -0.69828224 1.1290265
N 1.0809891 -0.053145114 0.97237116
C -0.3606567 0.39114544 -0.66232413
N -1.0497774 -0.4087069 0.15083455
H -1.7968597 0.6035707 -1.8398635
H -0.4550287 -1.1227454 2.088942
H 0.9264709 -1.3112601 0.839839
H 1.7662755 1.1082114 -0.6836775
