10

O -1.50057606 -0.86131806 -1.24757380
C 0.25207913 1.12544255 1.14734517
C -0.85850152 0.74309336 0.46887588
N 0.66853442 -0.72242891 -0.49654417
C -0.56419395 -0.32538091 -0.46705065
N 1.25395098 0.15541018 0.50192076
H 2.00793730 0.68949163 0.06639455
H -1.85143446 1.15984737 0.58412242
H -1.08998095 -1.54966585 -1.79099536
H 1.68218469 -0.41449126 1.23350530
