11

C -0.5050774 0.793652 -1.2280147
C -0.2486922 -1.4708807 0.9000877
N -0.9385249 -2.267584 0.38203686
C 0.48859224 -0.50189865 1.5790911
C 0.5148118 0.4337684 -0.21331675
O 0.34694636 0.79601365 1.0610051
H -0.35509276 0.24480323 -2.1579597
H 1.1130407 -0.6204452 2.452238
H 1.5177964 0.12505808 -0.48868704
H -0.42315367 1.869298 -1.4431522
H -1.5106463 0.598215 -0.84332865
