10

O 1.25659151 0.75357758 1.32628774
C 0.54904855 -0.32889030 0.75465584
C -0.95257786 -0.36576893 -1.36973242
C -0.63318311 0.14613794 -0.05793217
N -0.31478319 0.70983464 -1.44244723
H 1.19386298 -0.95257665 0.11660022
H -1.40511390 -1.08825691 -2.03811348
H -1.38337747 0.70378529 0.50178278
H 0.21850342 -0.94456741 1.59819735
H 1.47102927 1.36672446 0.61070116
