10

O 0.6302444 1.655358 0.87665415
C -0.47093174 -1.2345964 -1.0822908
C -0.6191517 -0.15074426 -0.13985942
C 0.4585973 0.25240073 0.83970886
N -0.22788212 -0.12832642 -1.617161
H -0.5080391 -2.2807107 -1.3611795
H -1.6108874 0.24485597 0.07694406
H 0.18537663 -0.0390656 1.8596493
H 1.3916261 -0.27090302 0.57990944
H 0.7710476 1.9517316 -0.03237497
