12

N -0.29097655 -0.8342547 1.7675114
C 0.098243475 0.292888 1.085469
O 0.8480283 1.1320437 1.5365406
N -0.49509987 0.373989 -0.18484646
C 0.27033934 0.9342116 -1.2743922
C -0.0694724 -0.51317763 -1.2583389
H -1.1460295 -1.2847965 1.4790066
H -0.10041909 -0.81792283 2.7576208
H -0.27485034 1.6121709 -1.9247125
H 1.2969264 1.2168857 -1.0541985
H -0.86908686 -0.89789164 -1.8877866
H 0.732397 -1.2141458 -1.0418736
