12

N -0.42510855 -0.54316129 0.90189936
C -1.36444932 -0.30198711 -0.09778589
O 1.64095213 -0.28790267 1.81312640
N 1.28076090 0.76705911 -0.13039864
C -1.19362295 -0.33527746 -1.43118325
C 0.75078390 -0.03060631 0.83366504
H -2.36485313 -0.11563847 0.29098026
H 1.16710984 -0.85546991 2.44110046
H -0.24181734 -0.59300403 -1.88638750
H 0.63393226 1.25859698 -0.72479796
H -2.04108501 -0.17508902 -2.08499264
H 2.15739718 1.21248000 0.07477400
