11

C -0.96747883 0.00020789 0.78343169
N 0.10150897 0.11595965 -0.04971074
C -1.55261057 -1.26347215 0.62933784
N -0.69355187 -1.74115192 -0.32515682
C 1.02951187 1.21970579 -0.21065866
N 0.29489902 -0.97365688 -0.75634159
H 0.61307251 2.09557880 0.28742562
H 1.16302200 1.42223917 -1.27383642
H -1.24058722 0.82390846 1.42771122
H -0.73853536 -2.65794134 -0.74986552
H 1.99074907 0.95862274 0.23766351
