11

C -0.14401425 0.56444114 -1.5393425
N -0.23530866 -0.0066549256 0.5511512
C -0.5137361 -0.20631844 1.8148744
N -0.89878666 0.7045059 -0.31727645
C 0.9358263 -0.6052916 -0.08111091
N 1.0184206 -0.29405496 -1.2938259
H 0.15174216 -0.8278021 2.3979037
H 1.609895 -1.2344286 0.49031985
H -1.3961616 0.2651667 2.2231247
H -0.7421819 0.10711921 -2.336847
H 0.21430513 1.5333176 -1.9089711
