11

C 1.1194636 -0.11389282 -0.70000553
N -1.1276402 0.16452716 -0.77001286
C -0.30139416 -1.0915433 0.8509587
N -0.16244458 -0.7446519 -0.48066896
C -0.44008818 1.2670768 -0.36752537
N 0.98786247 1.14147 -0.65673643
H -0.31222674 0.75712186 0.93121606
H -1.3289294 -1.1374934 1.1989489
H 0.41291174 -1.8071977 1.2550403
H 2.0299022 -0.69158137 -0.8082661
H -0.87741673 2.2561648 -0.45294872
