11

C -0.08990239 1.8703866 -0.8412471
N 0.19969645 -0.098497994 -0.032050055
C -1.042954 0.22690855 0.30038458
N -1.273087 1.484604 -0.118712574
C 0.9808821 -1.2493923 0.38426846
N 0.78352845 0.8616478 -0.79207295
H 0.31379348 -2.0084777 0.7948212
H -1.7010615 -0.40632254 0.88021064
H -1.3798811 1.8940539 -1.2228657
H 1.5024157 -1.6360483 -0.4909964
H 1.70657 -0.9388617 1.1382599
