9

C 0.7759544 0.11945738 -1.654467
C 0.15141195 0.023769278 -0.33510768
C -0.3499105 -0.043971267 0.7595363
C -0.97437435 -0.15200803 2.0674837
O -0.65667963 0.51434153 3.027179
H 0.8130025 1.1619059 -1.9865378
H 0.22181706 -0.4609018 -2.3983035
H 1.8016186 -0.25866467 -1.6162888
H -1.7828401 -0.9039283 2.136506
