9

C 1.42235971 0.08715001 0.13110888
C -1.10796049 0.03487289 -0.40598350
C 0.01886059 -0.19019153 0.56982167
C -0.07519642 -0.61380070 1.80362225
O 1.66750432 0.46573644 -0.98822523
H -1.12088101 1.08468330 -0.71859661
H -0.94518609 -0.57483613 -1.30088636
H 2.21663969 -0.07283011 0.88187324
H -2.07614036 -0.22078415 0.02726588
