9

C -1.1452998 -0.17176086 -0.22891414
C 0.078792565 0.28279793 0.52444476
C 0.11517155 0.8991981 1.67739
C 1.4292116 0.02692052 -0.06724113
O 1.5549589 -0.5505395 -1.1194103
H 2.2989583 0.39215112 0.507449
H -1.1781236 0.31733137 -1.2085606
H -2.0633838 0.055831768 0.31492516
H -1.0902855 -1.2519305 -0.40008274
