11

O -1.00275912 -2.32078040 -0.18876600
C 0.39704761 -0.71961990 1.01489188
C -0.50458288 -1.22080680 -0.06817908
C 0.05487164 1.02248634 -0.50282620
C 0.71325064 0.54881680 0.76784756
N -0.66183366 -0.15845158 -0.92306207
H 0.70828380 -1.34115240 1.84438130
H -1.23709818 -0.22266732 -1.74705355
H -0.61480248 1.87168706 -0.31479896
H 0.79834948 1.34372976 -1.24385191
H 1.34927325 1.19675879 1.36141705
