11

O 0.18725707 -1.9076437 1.1326962
C 0.026708605 -0.76578057 0.41526517
C -0.8768823 -0.36761123 -0.53672224
C -0.5018289 0.96577466 -0.90776277
C 0.59667313 1.3156096 -0.17688823
N 0.91611505 0.2415374 0.6363524
H -0.50707585 -2.5222046 0.8653722
H -1.7015027 -0.94982636 -0.92416483
H -1.003623 1.5819767 -1.639702
H 1.1840334 2.219948 -0.15443505
H 1.6801256 0.18822044 1.2899892
