11

N -1.2358422 0.9054203 0.6195109
C -0.23728798 -0.014592384 0.8106642
O 0.94147825 0.41832906 0.21993756
N 0.44707265 -0.7597727 -1.7010471
C 1.2471669 -0.075985186 -1.0074698
N -0.21760872 -1.110597 1.4354346
H -2.0224922 0.8603548 1.2493107
H 0.8828568 -1.0079236 -2.582696
H 2.2606788 0.24940968 -1.2656147
H -0.9489539 1.8356965 0.35804105
H -1.1170683 -1.3003397 1.8639288
