9

O -1.2525935 0.03518818 -1.6150122
C -0.5111572 -0.13208057 -0.5126581
N -0.67714953 -1.1482446 0.28811347
O 0.2578399 -0.97764945 1.2953099
C 0.9494336 0.1410923 1.0550656
C 0.52493805 0.7447136 -0.0785946
H -1.8799586 -0.6999404 -1.6673368
H 1.7156067 0.38278556 1.7776226
H 0.87304044 1.6541352 -0.54250985
