11

O -0.3060388 -0.30841312 -0.716843
C -0.6416332 1.0949916 0.018320855
C 0.2816956 0.93253136 -1.1106403
C 0.113538235 -0.5575142 1.0171939
O 0.7542974 -1.7507694 0.822424
H -0.039404266 1.1762908 -2.1249483
H -0.8473473 -0.6483916 1.5155221
H -1.6569086 1.3205907 -0.33608177
H 0.8241356 0.10889189 1.4876531
H 0.15589866 -2.3692129 0.384539
H 1.3617666 1.0010047 -0.9571394
