11

N -1.2380736 1.771098 1.1211789
C -0.8661006 1.3304119 0.07387929
C -0.32349908 -0.6613985 0.42765278
C 1.1711925 -0.6642202 0.037055817
C -0.358217 0.41285875 -0.8605263
O 1.0297527 0.3367498 -1.0079956
H -0.9480533 0.24005182 -1.7630981
H -1.0519125 0.69335204 1.4751209
H 1.8702276 -0.30540285 0.8033728
H 1.567055 -1.5940267 -0.39246368
H -0.8523716 -1.559474 0.085823335
