11

N -0.5587093 -1.2288679 -1.8786281
C 0.7599909 0.47084478 -0.36433613
C -0.5113833 0.59292346 1.2356112
C 0.099155515 -0.6159695 0.5354324
C -0.13499482 -0.53988355 -0.91519696
O 0.07120138 1.520202 0.29889825
H 0.5239978 -1.4834421 1.0286429
H 1.7887181 0.6457164 -0.6612489
H -0.34384638 -0.7926507 -2.775125
H -0.09032828 0.75948167 2.2332249
H -1.6038014 0.6716453 1.2627254
