9

O -0.40493328 -1.75527910 1.24385220
C 0.32941238 1.15713598 -0.10541718
N 1.02766266 0.97903365 -1.13991367
N -0.86697723 0.44018876 0.17874134
C -0.74181529 -0.92176795 0.28683386
N -1.12802844 -0.79429633 -0.89194463
H 1.79581237 1.64977958 -1.16289575
H 0.49596567 1.90700775 0.67568518
H -0.50709912 -2.66180238 0.91505876
