9

O 0.872609 0.11075322 -2.1935372
C -0.8956872 0.38168433 0.8125953
N -0.42076197 -0.39686555 1.7139125
N 1.3247167 -0.6796002 -0.016524494
C 0.7006191 -0.0097904615 -0.8765133
N -0.21586807 0.7837011 -0.2755824
H 1.6551638 -0.40260562 -2.443193
H -1.8926033 0.8346411 0.8648772
H -1.1281879 -0.6219179 2.4139652
