11

N -0.52068526 -1.619738 -0.81244296
C -1.4477385 0.060089998 0.20024693
C -0.2005913 -0.5107722 -0.17062977
O 0.3059186 0.95938206 -0.84256446
C 1.2500097 0.8733838 0.1739808
O 0.88022274 -0.4128667 0.69243336
H 0.19211511 -2.3330634 -0.65177166
H -1.6795343 0.3449741 1.2262719
H 2.278441 0.84963804 -0.20611015
H -2.2131693 0.1455018 -0.563054
H 1.155012 1.6434705 0.95364016
