11

N -1.48405896 -0.55046245 0.20525413
C -0.68026457 -1.07909022 -0.92759658
C -0.14545703 -0.15077949 0.06844486
O 0.83442873 -0.35525294 1.03770819
C 1.26942059 0.96889203 0.75620680
O 0.23640773 1.17470762 -0.20042704
H -0.86257553 -0.68316687 -1.92536079
H -0.48568528 -2.14596907 -0.86789046
H 2.26305672 1.00692167 0.30104166
H -2.13186747 0.18076976 -0.06601210
H 1.18659471 1.63342994 1.61863109
