12

O 2.426615 -0.1158679 0.6797884
N -1.5323671 -0.59415185 -0.21738206
C 0.38844296 0.22872712 0.004551993
C -0.82565904 0.5196782 -0.89389765
N 1.6384182 0.33654317 -0.42214936
C -0.48727402 -0.9649504 0.5245576
H 0.13012186 0.6881506 1.0355552
H -0.57652515 -1.5271549 1.4548998
H -2.4959285 -0.53274965 0.08876373
H 3.3137836 0.13768601 0.42421085
H -1.3260055 1.476508 -0.7218823
H -0.653622 0.34758177 -1.9570162
