12

O 1.838964 1.6456033 -1.531173
N -0.7990595 -0.91492736 1.1029195
C 0.4432374 0.17920014 -0.71206015
C 0.29804307 -0.9001584 1.8236651
N 0.5715777 1.4035345 -1.0206165
C -0.892768 -0.27567694 -0.21738963
H 1.2510437 -0.5404469 -0.82302105
H 1.8225781 2.5915754 -1.7157688
H -1.6768728 -1.3410586 1.4008254
H -1.5686964 0.5843474 -0.15965705
H 0.04072358 -1.4264938 2.7647395
H -1.3287708 -1.0054988 -0.91246307
