11

O -1.0118573 -0.2915023 1.2253449
C -0.2139938 -0.5716843 -1.0671663
N 1.6944796 -0.40570042 0.20547864
C -0.8643445 0.25222626 -0.08484245
C 1.3156922 0.3482624 1.0732903
C -0.090685464 0.78240585 1.1388276
H -0.007891931 -0.11139199 -2.036628
H -0.5174637 -1.6151136 -1.115758
H -1.673514 0.91531736 -0.39448187
H -0.37908232 1.6887635 1.6620107
H 1.7486613 -0.99158275 -0.60607576
