11

O 0.50335884 1.7373693 -0.09931932
C 1.0340121 0.7272862 -0.95092493
N -0.84503204 -2.803353 0.5281767
C -0.90691704 -1.6508367 0.49986517
C 0.45099205 0.398841 0.34935322
C -0.9460712 -0.1851731 0.4588371
H 2.115743 0.7377933 -1.0727452
H 0.45977294 0.54106975 -1.8570775
H 1.1197747 0.17003712 1.1790001
H -1.5455358 0.14107098 -0.39835104
H -1.4400973 0.18589495 1.3631858
