9

O 1.5826191 -0.28052256 -1.5371308
C 0.6205163 -0.1472628 -0.6120959
N 0.349224 0.9930938 -0.01645821
N -0.66893303 0.6248538 0.80351514
C -0.93554944 -0.6787254 0.6532365
N -0.13105181 -1.2110829 -0.24462287
H 1.9917239 0.58698404 -1.6568129
H -1.1000365 1.308947 1.4035993
H -1.7085124 -1.196285 1.2067697
