11

N 0.29510677 0.3063194 1.9999819
C 0.11561914 0.1045746 0.7650399
C -0.6335399 0.8476355 -0.34363586
N -0.42190915 0.08352935 -1.5759547
C 0.2928345 -0.91675884 -1.2461873
N 0.6470113 -0.99316704 0.09046439
H -0.1750166 1.1611508 2.2965837
H -1.706045 0.9125657 -0.121376865
H -0.26038474 1.8724197 -0.46009305
H 0.6254318 -1.6859896 -1.9374688
H 1.220892 -1.6922797 0.53264683
