11

N -0.45798856 -1.0840954 0.5274903
C 0.18024065 0.1357682 -1.1902248
C -0.56720304 -1.721256 -0.62144476
N 0.025011407 0.114229724 0.14381835
C 0.29630175 1.136194 1.132236
N -0.18734035 -1.0167949 -1.7151922
H 1.0451198 0.7708352 1.8386254
H 0.67233896 2.0263324 0.62362325
H -0.9392077 -2.7348547 -0.6739263
H 0.5569174 0.99332094 -1.7315357
H -0.62419045 1.3803209 1.6665303
