11

N 0.05288385 0.04935135 0.17066184
C 0.37915219 0.61271542 1.46339103
C -0.65183416 0.56858800 -0.84815954
N -0.70772993 -0.28521703 -1.85165388
C 0.00168673 -1.33617469 -1.37305117
N 0.48411224 -1.18520765 -0.15550126
H -0.02451610 -0.02580951 2.25187823
H -1.09946181 1.55306633 -0.82111381
H -0.06358920 1.60835297 1.53496765
H 0.16503689 -2.24275931 -1.93868813
H 1.46425942 0.68309398 1.56726919
