10

N 0.72071148 -0.46385436 1.45955932
C 0.22223324 0.16677430 0.34564668
O -0.39992835 -0.77224316 -0.43465970
N 0.29161072 1.38149117 -0.00027848
C -0.84954738 -0.41423564 -1.67484643
O -1.40942157 -1.21014623 -2.36360732
H 0.34911725 -1.38023650 1.66041679
H 0.91492400 0.11557679 2.25978929
H -0.63635284 0.63344783 -1.92747176
H 0.79665363 1.94342575 0.67545219
