10

N -0.178375 0.13779503 0.7617021
C -0.45622915 0.020778965 -0.57817733
N 0.5114499 -0.43020082 -1.3356569
O 1.5476296 -0.65097904 -0.38757196
C 1.046037 -0.29414213 0.7712202
O 1.8496639 -0.41543558 1.8137118
N -1.7030567 0.31578562 -1.0575906
H 1.3425763 -0.13012518 2.5871582
H -1.763123 0.4356357 -2.0558617
H -2.1965728 1.0108874 -0.51893365
