11

O 2.51168631 -0.55345491 0.54315944
C 0.01109621 -0.82029101 0.67634464
N 1.96639980 0.59038130 -0.30689813
C 1.20831342 -0.35531552 0.36412718
C -1.42212649 0.90709245 -0.44410639
C -1.24970064 -0.26446796 0.17002981
H 2.11657678 0.26593702 -1.26425021
H -0.60606526 1.60637201 -0.60274214
H -0.01466772 -1.68195132 1.33665940
H -2.11932715 -0.90012567 0.32896248
H -2.40218517 1.20582356 -0.80128634
