11

O 1.6215129 0.17973465 2.061139
C 0.0086634 -0.9447876 0.48758987
N 1.2034943 1.2867961 1.097826
C -0.80316865 -0.71204615 -0.71310276
C -1.1221238 0.4660435 -1.2514522
C 0.7632991 -0.026407259 1.0656154
H -0.8208953 1.409879 -0.80586374
H 0.02172357 -1.9330037 0.93747455
H 2.0086405 1.3744302 0.47460848
H -1.170478 -1.6181641 -1.1922736
H -1.7106681 0.51752543 -2.161561
