11

N 0.96730566 0.46079403 -2.1429133
C 0.5786083 0.24095133 -0.9603215
C -0.7997624 -0.11802198 -0.6434584
C -1.1513724 -0.3383492 0.6251814
C -0.12460849 -0.20810764 1.6425223
N 1.098343 0.1039557 1.4194404
O 1.4633547 0.33275595 0.10324377
H 1.9590725 0.69639075 -2.1649663
H -1.479902 -0.1876858 -1.4830673
H -2.1621687 -0.6054918 0.9142239
H -0.34887013 -0.3771914 2.690115
