9

O -0.86801016 -0.78555185 0.5889995
C -1.1627475 0.6531628 0.35782057
N -0.04440284 1.2190115 -0.15874809
C 0.3572932 -1.025966 0.21659678
C 0.93075776 0.11952753 -0.30718097
O -2.2454338 1.0647596 0.65205497
H 0.7558715 -2.023356 0.35372487
H 1.9822842 0.340685 -0.4389046
H 0.2943875 0.43772757 -1.264363
