12

C -1.2148132 -0.9471359 0.22140269
C 0.08475659 -0.38883173 0.6102464
O -1.9151973 -1.5566975 1.0188417
N 0.78986937 0.33671242 -0.23871997
C 1.5941368 1.3679434 0.28986067
N -1.534276 -0.7828263 -1.0981612
H -2.4685986 -1.0488364 -1.3611168
H 0.45830128 -0.6289962 1.6044786
H 1.8487506 0.06576603 -0.41059518
H 1.7139573 2.2439363 -0.33872873
H 1.6790868 1.4577004 1.3697622
H -1.0359737 -0.11873478 -1.6672703
