10

O -0.85314244 -1.3886544 -0.38240194
C 0.8157092 0.00060288154 -1.0403652
C -0.6156111 0.9418304 2.2218983
O 0.88064784 -0.86282766 -1.9853561
C -0.1795767 -0.3481359 -0.028639872
C -0.4392154 0.35448018 1.1861209
H -0.32499003 -1.6242907 -1.2522533
H -0.7757944 1.4640676 3.139326
H -0.14782652 0.7963904 -1.1151931
H 1.6397995 0.6665374 -0.7431355
