10

O -0.9525314 1.8529177 0.99949664
C -0.29751524 1.106394 0.025835196
C -0.14087833 -0.33695602 0.46524826
O -0.5664895 -0.70308703 1.539848
C 0.5398334 -1.2333469 -0.46050504
C 1.1047347 -1.9470627 -1.2466407
H -1.1483276 1.2344644 1.724308
H 0.7056651 1.5077672 -0.18464647
H -0.8484646 1.1136386 -0.927767
H 1.6039735 -2.5947292 -1.935177
