10

O 0.80136055 -0.1558046 -1.590679
C -0.85816455 -1.108642 -0.2391786
C -1.7279133 -1.88833 0.0454478
O 1.5100591 1.7463878 0.11765737
C 0.49129426 0.88991416 0.52127737
C 0.19013642 -0.14580189 -0.544337
H -2.4988937 -2.5881193 0.28443465
H -0.43940884 1.4409164 0.72876364
H 1.7743418 1.4536816 -0.76946926
H 0.7571884 0.3557978 1.4460831
