9

O 0.32133782 1.8921432 -1.1245105
C 0.3164827 0.30387747 0.60670394
N -0.10612456 -0.8538027 0.92825145
N -0.6955747 -1.7837756 1.4017152
N -0.513438 -0.33169368 -1.4999975
C -0.02176533 0.5810285 -0.82280433
H 0.032838423 1.9883307 -2.044826
H -0.19328195 -2.6500177 1.1804205
H 0.8595256 0.8539097 1.3750476
