11

N -0.96145337 -0.76586622 -0.83684015
C -0.07362006 -1.84744612 -0.53288116
C 0.92078980 -1.35590757 0.25613576
N 0.27967530 2.13334255 0.73608942
C 0.20046338 0.92037853 0.37490335
C -0.90005042 0.47334199 -0.46709557
O 1.08432314 -0.05029602 0.70984075
H 1.74105892 -1.95256135 0.63823808
H 1.10619215 2.28460661 1.31596724
H -1.65446433 1.18985140 -0.77032729
H -1.74291440 -1.02944366 -1.42403046
