11

C 0.30640182 0.09997531 -0.90004593
C -0.49689007 -1.3854907 1.0085766
C 0.52883726 1.4270685 -1.0914828
C -0.16103801 -0.009698865 0.47705525
N 0.51061684 2.5696294 -0.6212395
O -0.2796073 0.9866988 1.1841756
H -1.5284588 -1.3755964 1.3698629
H 0.90424585 2.159257 -1.9411627
H 0.15010676 -1.5997713 1.8641438
H -0.38030747 -2.1722803 0.2579384
H 0.44609308 -0.6997915 -1.607822
