11

C 0.95055495 -0.17015878 -0.36877756
C -0.31073856 0.23559346 -0.14828263
C -1.35090474 1.11147832 -0.72369692
C 0.78550861 -0.96011550 0.86695529
N 1.32479479 -1.75237122 1.66316097
O -0.54637813 -0.48023640 1.02482126
H 2.27360953 -1.97741791 1.37215569
H -2.25271144 0.53060338 -0.93989481
H 1.72890466 -0.00415029 -1.09775765
H -0.98625126 1.57389619 -1.64321564
H -1.61638898 1.89287885 -0.00546794
