11

C 1.0092723 -0.80966645 -1.1425034
C 0.21786241 -0.16393624 -0.058776524
C -0.88271004 0.6310054 -0.052006423
C -1.09228 0.88426614 1.331118
N -0.2002776 0.2955698 2.0771112
O 0.6312552 -0.37009037 1.2019546
H 1.0070658 -1.8986592 -1.0326786
H 0.58192927 -0.55619305 -2.1140459
H 2.0494332 -0.47179142 -1.1188205
H -1.456515 0.9822956 -0.8960485
H -1.8650361 1.4771999 1.8046961
