11

C -1.4258198 0.6563168 -1.0584663
C 0.99732554 0.269247 -0.036790352
C -0.32479078 0.1291094 -0.22779848
C 0.83328 -0.75572526 1.0124134
N 1.4038336 -1.4355754 1.886893
O -0.562997 -0.8420397 0.7439208
H -2.1805925 1.1245404 -0.41971254
H 1.8078867 0.852286 -0.4464917
H 2.400461 -1.232347 1.9186978
H -1.9061153 -0.16002466 -1.6064767
H -1.0424715 1.3942124 -1.7661889
