11

N 0.96679413 0.46300176 -2.1396723
C 0.5802507 0.2407991 -0.9570373
C -0.8004104 -0.11944341 -0.6431293
C -1.1524305 -0.34143546 0.62604386
C -0.12355961 -0.20860071 1.6397331
N 1.0970882 0.10542619 1.4201566
O 1.4636315 0.3340096 0.10170779
H 1.9579039 0.70021904 -2.1671007
H -1.478214 -0.18578605 -1.4855936
H -2.163089 -0.61106974 0.91563535
H -0.34796473 -0.37712017 2.689256
