11

N 1.64255277 -0.97139577 -1.08814534
C 0.83575664 -0.34005946 -0.36587663
C -1.36381770 1.13863755 0.18388869
C -0.18120614 -0.94060900 0.55248315
C -1.43475405 -0.17726403 0.75832970
N -0.27285459 1.76353897 -0.16002580
O 0.87484123 1.06182190 -0.33610962
H 2.24869189 -0.34200175 -1.61353266
H -2.22855116 1.79196227 0.21835617
H -0.36494093 -1.98431745 0.27887964
H 0.24428224 -1.00031307 1.57175220
