10

N 0.4105951 -0.857665 -0.93968606
C 0.7498952 0.4492162 -0.8994715
C -0.38789237 -1.0539062 0.24436991
C 0.3037664 1.0755948 0.26411676
C -0.4263613 0.13557985 0.9895495
H -0.9267597 0.27612594 1.9385314
H -0.8545987 -0.9602668 -0.9512918
H 1.2826024 0.8894165 -1.7327124
H 0.46846247 2.1122546 0.53315943
H -0.6197097 -2.06635 0.55343443
