10

N -1.0498949 0.26416054 0.3619586
C -0.66109633 -0.9666007 -0.100677595
C 0.66681176 -0.8867319 -0.4392309
C 1.0945778 0.4442742 -0.17008498
C 0.012311002 1.129451 0.3236002
H -1.9733859 0.49603325 0.68297493
H -1.358726 -1.7901984 -0.14845699
H 1.2744615 -1.6885425 -0.83532137
H 2.0869005 0.8438726 -0.32420075
H -0.09195929 2.1542819 0.6494388
