10

N 1.0864949 -0.8746411 0.19229111
C -0.27101344 0.948656 0.6193502
C -0.0021288022 -0.8437636 -0.77639085
C -0.8385191 0.35592237 -0.44147778
C 0.90889 0.13943431 0.9607325
H -0.59225965 1.8403989 1.1423956
H -0.56658417 -1.7830101 -0.7149819
H 1.5899894 0.35399535 1.7812526
H 0.41564268 -0.7999442 -1.7896495
H -1.7305119 0.6629521 -0.97352195
