10

O -0.5947986 0.795629 -1.1247507
C 0.457586 1.0277867 -0.20955539
N -0.28085327 -1.0226465 -2.7411535
C -0.41549173 -0.17873305 -1.9630872
C -0.50210136 -0.60989463 1.3183609
N 0.41954136 0.22203782 0.86519396
H -0.34048876 -1.0623342 2.286371
H 1.2321374 0.34201324 1.4586972
H -1.3964446 -0.78917396 0.7368556
H 1.4209135 1.2753156 -0.6269317
