10

O 0.8024244 -0.42376316 -1.1879975
C 1.2654104 0.029073352 -0.0137408385
N 0.3660148 0.17745778 0.9247295
C -0.9320229 -0.20418012 0.695464
C -0.4536332 0.02036433 -1.5559943
N -1.2107499 0.26590776 -2.4100745
H -1.0648383 -1.2363967 0.38713193
H -1.6580172 0.20446125 1.391344
H 2.2736528 0.41151163 0.047794532
H 0.6117588 0.75556374 1.7213432
