11

C 1.0431322 -0.71086836 0.38703004
C 0.5581814 0.5838514 0.6868274
O 0.010065211 1.2299973 -0.37107876
C -1.0459242 0.23184371 -0.90615064
O -1.0672618 -0.8636676 -0.14299835
H -0.35188577 -0.12891845 1.1178178
H 1.386868 -1.3376166 1.2039315
H 1.0040039 1.1926779 1.4749278
H -0.72872394 0.055936802 -1.9485406
H -1.9604405 0.8385352 -0.8831293
H 1.1519859 -1.0917712 -0.61863667
