10

N 0.49835473 -1.4077106 0.74177
C -1.1098762 0.5727409 0.4811974
C -0.5625527 -0.6947907 -0.08472524
N -0.31151372 1.4897953 0.83543545
C 0.86347574 -0.8032506 -0.3050102
C 2.001717 -0.49416637 -1.0715525
N 2.8991053 -0.23434913 -1.7521422
H -0.8256441 2.2880013 1.2120516
H -2.201962 0.63089573 0.5608682
H -1.2511044 -1.347166 -0.6178928
