10

N -0.06051838 -0.52087659 1.58279952
C 0.88577004 -0.32740690 0.76944736
C -0.29800153 -0.83946489 0.11345376
N -0.90358873 1.34511165 -0.62344635
C -1.16907822 0.10696954 -0.64282337
C 2.21301894 0.13271222 0.69586695
N 3.31114928 0.47537020 0.58313556
H -1.58781693 1.86787000 -1.17286247
H -0.37866564 -1.89816381 -0.12448430
H -2.01226873 -0.34212155 -1.18108703
