11

O -1.7763712 0.25519165 1.5942968
C -0.95012105 0.051829338 0.7418025
C -1.0777637 -0.89262956 -0.42169195
N -0.063978024 -0.92508817 -1.1879866
C 0.9641987 -0.0010436983 -0.6909837
C 0.43354386 0.6667824 0.58506745
H 0.34372696 1.755069 0.5095863
H 1.1854504 0.7138534 -1.4899607
H 1.8802398 -0.5777126 -0.52574515
H -1.9676868 -1.4952995 -0.5904677
H 1.0287611 0.44904763 1.4760827
