10

O -1.1489049 0.66811293 1.2034522
C 1.0643791 -0.090754874 0.22817126
C -0.33020505 -0.40051082 -0.86389935
O -0.23936276 -1.4544109 -0.07432209
C -0.23143557 0.71577084 0.18224199
O 1.3411133 -0.15644473 -1.0394006
H -1.3162298 -0.28363782 1.3298712
H -0.846782 -0.42206272 -1.8303827
H -0.07927942 1.7446177 -0.15068635
H 1.7867072 -0.32067955 1.0149542
