10

O 1.3130448 -1.0694878 0.6849382
C 0.4513803 -0.00071007485 0.6535201
C -0.9997056 -0.17671764 0.13456118
O -1.0664829 1.2408942 -0.1319048
C 0.17593701 0.7451893 -0.6757175
O -0.46421915 -0.45351318 -1.1923729
H 0.5849563 0.61258835 1.5452241
H -1.8957883 -0.7001067 0.46466768
H 1.1493169 -1.5721622 -0.13003232
H 0.75156045 1.3740258 -1.3528838
