10

O 0.8241165 0.9327863 -1.7094904
C -0.018612761 0.8139331 -0.60413754
C 0.2061532 -0.4889592 0.121889286
O 1.0225077 -1.3010898 -0.25998142
C -0.61695844 -0.7873109 1.3652302
O -1.4400094 -0.021259166 1.7946341
H 1.3472983 0.12155995 -1.7515905
H 0.14020038 1.6358775 0.11176448
H -1.077903 0.8622293 -0.89830434
H -0.3867923 -1.767767 1.8299856
