9

O -0.6076754 -0.38060704 -1.0244957
C 0.37349734 0.5168962 -1.2156869
C 0.4919088 0.2919046 0.9085807
O 0.83872604 0.42357355 2.048773
C -0.6265847 -0.6131892 0.38667548
N 1.0470287 0.9566807 -0.22160071
H -1.6037997 -0.33450592 0.7880419
H 0.51849514 0.80844617 -2.2534506
H -0.43159607 -1.6691989 0.58316284
