9

O 1.0045141 -0.94570667 -1.50169
C 0.30815342 -0.34933904 -0.5216222
C -0.9411512 -0.6227296 -0.07691932
O -1.1962464 0.2651683 0.94208455
C -0.09010789 1.0050046 1.0374187
N 0.84636635 0.6961851 0.19839661
H 1.8612859 -0.49863198 -1.5464865
H -1.7161708 -1.3290745 -0.32279915
H -0.07664348 1.7791237 1.7916173
