11

N -0.3565517 0.49323922 1.9633774
C -0.1558504 0.18214618 0.61428857
C 0.5237251 -0.8687531 0.054433327
N 0.34486637 -0.7121952 -1.3135302
C -0.42024767 0.3875276 -1.4952587
N -0.73675126 0.95737416 -0.3567141
H -0.75053203 1.4206442 2.0448406
H 0.47931165 0.41614303 2.5274756
H 1.07984 -1.694057 0.46988675
H 0.70895636 -1.3144057 -2.0320365
H -0.71676624 0.73233676 -2.4767625
