11

N -1.1195842 -0.9066516 -0.07437315
C -1.5041504 0.35701284 -0.14710408
C 0.70642734 0.5883613 0.21803387
N 1.2775136 -1.4994781 -0.3258716
C 0.23680192 -0.77210337 0.016762888
N -0.5319309 1.2833072 -0.04409041
H -2.535184 0.64247996 -0.32822305
H 1.07906 0.799943 1.2245812
H 1.2890848 -2.5098743 -0.22549802
H 1.7977265 -0.25711325 -0.31626412
H -0.69576436 2.2741163 0.0020464165
