11

N 0.96607035 -0.25305718 -0.87613463
C -0.6219376 0.13166665 0.7437957
C 0.08298219 -1.0062734 0.0036570386
N -0.25222763 1.3607559 0.15290129
C 0.60570717 1.0582002 -0.7649492
N -1.4036947 -0.0507137 1.7182883
H -0.6386926 -1.6084528 -0.5602068
H 1.0612854 1.7988732 -1.4157156
H 0.63360506 -1.6523215 0.69247556
H 1.3176194 -0.6270896 -1.741647
H -1.750717 0.8484119 2.0475354
