11

N -0.20007047 0.96301502 1.98947715
C -0.16813466 0.53395817 0.80249236
C 0.52773591 -0.76542267 0.39383813
N 0.41750377 -0.68893826 -1.05640729
C -0.40283143 0.36576589 -1.33257580
N -0.74243032 1.12637992 -0.34455734
H -0.71578098 1.84075303 2.01903443
H -0.00377665 -1.63437985 0.79854145
H 1.56712769 -0.78721680 0.73180911
H 0.43717960 -1.50432717 -1.64577342
H -0.71652228 0.55041287 -2.35587853
