11

C -1.3051533 0.106100716 -0.78417015
O 0.06945153 -0.0142279845 -1.0863987
C 0.81902313 -0.53173417 -0.017309748
C 1.0204524 0.4905403 1.0874774
O 1.283445 0.2027213 2.2276263
H -1.7475172 -0.8701846 -0.5387566
H -1.4811274 0.7923828 0.057641223
H -1.792819 0.5078482 -1.6741455
H 1.8074037 -0.7790255 -0.4219892
H 0.38287303 -1.4503124 0.4056897
H 0.94396794 1.5458912 0.74433523
