11

C -0.7878153 1.0857707 -0.46451277
O -0.29547092 -1.1297282 -0.20625265
C 1.1025703 -1.3756241 -0.16586469
C -0.9424079 1.2673349 0.84143126
O -0.47296655 -0.06852489 -1.1324519
H 1.6460057 -0.49760535 0.20531812
H 1.2139349 -2.2071893 0.5358097
H -0.84444046 0.45906302 1.5548038
H -1.1941842 2.2615097 1.1958193
H -0.9010529 1.8696831 -1.2084229
H 1.4758271 -1.66469 -1.1556776
