17

C 0.52370805 -0.32485834 -2.1823728
N 0.25304326 0.5634296 1.394022
C 0.41490477 0.7460947 -0.0098833935
O 0.71255124 1.838037 -0.44460994
N 0.20623481 -0.36894903 -0.76588076
C -0.2850879 -1.6282665 -0.23096657
C -0.7167878 1.6970335 2.2929506
H 0.6864308 1.2808119 2.0902057
H -0.35224524 -0.5994204 -2.7791626
H -1.0141557 2.3520045 1.4691964
H -1.5571837 1.0519184 2.5696523
H 0.8300829 0.69065636 -2.4306169
H 0.24101235 -0.3811896 1.761948
H -1.0018716 -1.4671462 0.5819568
H 1.3440658 -1.0157804 -2.4118016
H 0.5309376 -2.2764342 0.121894605
H -0.81563973 -2.1579409 -1.0265313
