13

C 0.19817139 -1.5210677 -0.59847087
C -0.20484863 -0.05600285 -0.5847515
O -1.5706275 0.13328929 -0.23243958
C 0.73819196 0.768716 0.30044624
O 1.9452702 0.62024444 0.2613149
N 0.09870681 1.6548371 1.1081346
H 1.24695 -1.6178856 -0.88497216
H -0.4296092 -2.0767307 -1.3016108
H 0.08165775 -1.9645641 0.39936793
H -0.113140196 0.3569773 -1.5941643
H -1.7558775 -0.4297913 0.52990377
H -0.8870977 1.8110986 0.973987
H 0.6522525 2.3208795 1.6232545
