11

C -0.7724481 -0.21014772 0.9522711
C -0.38914213 -0.16980031 2.2434866
C 0.22998832 -0.66016436 0.056467433
C 0.09924776 -0.23425618 -1.3218292
O -0.78046906 -0.8275054 -1.9315037
N 0.95841134 0.66761625 -1.8769712
H -1.7275037 0.20670196 0.6251025
H 0.54454184 -0.647446 2.533883
H -0.96861094 0.34037948 3.0081718
H 1.8306248 0.839081 -1.4020554
H 0.97535986 0.69554126 -2.887023
