9

N -0.09229592 -0.083880715 -1.7411357
C -0.24625307 -0.022918906 -0.41123825
N 0.7637041 0.013228965 0.39225227
C 0.40582576 0.073543824 1.7376733
O 1.199447 0.11282476 2.6437056
H 0.83663416 -0.080702774 -2.127945
H -0.88494533 -0.08828714 -2.3622012
H -1.2899857 -0.005845078 -0.072829306
H -0.69213074 0.082037084 1.9417185
