10

O 1.9299899 -1.0776436 -0.29026094
C -1.1294085 0.1400104 0.018857438
C 0.2756373 0.58885753 0.11357129
C -2.2533538 -0.2722145 -0.05490353
O 0.7569373 1.1788692 -1.0520707
C 1.1004542 -0.6448103 0.47307295
H 1.3477875 0.52351546 -1.4576899
H -3.2579076 -0.62417763 -0.13802458
H 0.8746401 -1.1205631 1.4439204
H 0.3552236 1.3081565 0.94352776
