11

N -0.7223041 0.458893 0.8583647
C -1.1591755 0.14127572 -0.37564355
O 0.61174196 1.3324802 -0.6791701
C 0.6797219 -1.0024159 -0.20541786
C 0.734922 0.46556857 0.30990082
O -0.6089074 -0.9151806 -0.90351033
H -2.0571656 0.5028306 -0.8749169
H 0.6120871 -1.7574778 0.5793768
H 1.4913279 0.63036716 1.0974078
H 1.4239317 -1.2435806 -0.961436
H -1.0061796 1.3872397 1.1550447
