11

N 0.22863473 -0.89191073 0.87382126
C 1.0000821 -0.45802665 -0.30170053
O 1.0314409 0.90219986 0.15166345
C -1.0094936 0.2579006 -0.6893117
C -0.26856548 0.49284533 0.634893
O 0.047254305 -0.47757313 -1.3405719
H -1.2214297 1.1735506 -1.2446579
H -0.69654536 1.1031259 1.4309677
H 0.8487661 -0.836566 1.681147
H -1.9050815 -0.36122918 -0.5848846
H 1.9449376 -0.9043169 -0.6113656
