10

C -0.68992054 -0.70404005 0.3523081
C -0.4614982 0.5725592 0.76814896
N 1.2640623 0.7620391 -0.9069191
C 0.5486372 1.2618061 0.07833529
N 0.06460706 -1.1794181 -0.6698795
C 1.0685644 -0.53051484 -1.3671286
H -1.0246879 1.0208559 1.5776807
H -0.110818185 -2.127178 -0.9811492
H 0.7753706 2.2900817 0.3655776
H -1.4343168 -1.3661913 0.78302574
