10

C -1.0827832 0.24609941 -0.2515318
C -0.31638342 -0.5961307 -1.0508208
N 0.9511695 -0.89134246 -0.7673847
C 1.4429748 -0.32649443 0.3372294
N 0.81174606 0.4904453 1.1766005
C -0.45680302 0.77070343 0.8696051
H -2.1135209 0.4790196 -0.49193272
H -0.7325797 -1.0494142 -1.9482975
H 2.4780364 -0.5612751 0.5770908
H -0.9818564 1.4383888 1.5494419
