11

O 0.9335767 1.8996898 1.475954
C 0.9000466 -0.15079696 -0.022870006
C -0.094210066 -1.2250185 0.23449288
N -0.3925586 -0.16281307 -0.75009614
C -0.73843676 1.1674036 -0.18424317
C 0.42097956 1.2204288 0.6164275
H -0.727676 -1.1855577 1.1146265
H 0.09351284 -2.2092767 -0.190735
H 1.8144126 -0.37500617 -0.5658032
H -1.7733427 1.4133606 0.010132683
H -0.43630418 -0.39241344 -1.7378863
