11

N -0.04691114 -1.6246645 -0.9367121
C 0.940542 -0.44430178 0.98880684
C 0.72166145 -1.570586 0.09093355
C 0.27292714 0.69670004 0.7362345
C -0.5868661 0.60572815 -0.43802455
N -1.1386477 1.7776296 -0.5351597
O -0.7676095 -0.4239516 -1.2251582
H -0.45836842 2.03126 0.50250775
H 1.2391466 -2.5150962 0.24883749
H -1.8084618 2.0479429 -1.2473075
H 1.6325874 -0.5806606 1.815042
