11

C 0.64634246 -0.6187861 -0.2600895
C 0.011758499 1.1859025 0.11635224
O 0.875238 -0.8631235 -1.5285373
C -0.7179221 -0.840554 0.410654
O -0.8582295 0.465908 0.95390046
H 0.57827616 0.3853119 -1.0202162
H 1.479951 -0.6471886 0.46939126
H -1.467024 -1.046059 -0.36451933
H -0.5282963 1.7828069 -0.6358038
H 0.7225678 1.80452 0.66897434
H -0.7426621 -1.6087382 1.1898938
