11

C -0.83943415 -0.13929151 -0.7116241
C 0.40475133 -0.9265375 -0.29374173
O 0.65755814 -0.43105182 1.0100518
C 0.35120404 0.9329763 0.9221532
O -0.7421752 1.0659186 0.034747407
H -1.7618909 -0.6631966 -0.43660855
H -0.8620738 0.08565103 -1.783521
H 0.25189632 -2.0059197 -0.23210107
H 1.2544718 -0.71501106 -0.9589399
H 0.07108403 1.2986683 1.9140713
H 1.2146084 1.4977943 0.5355125
