11

C -0.99766005 -0.63928130 -1.02328188
C 0.31550236 -0.87710079 -0.29632621
O 0.31133798 -0.32365980 0.99054323
C 0.42111304 1.08584447 0.98391289
O -1.11599558 -0.66279857 -2.22167553
H -1.86114257 -0.48330154 -0.34152650
H -0.42055722 1.56102396 0.45831792
H 0.42244010 -1.96137527 -0.16967267
H 1.15161602 -0.51641940 -0.91428277
H 0.41472208 1.40866059 2.02584654
H 1.35862386 1.40840799 0.50814483
