11

C 1.0106676 -0.80970025 -1.1413757
C 0.21791105 -0.16350475 -0.059279278
C -0.88409746 0.63127834 -0.05281403
C -1.0921942 0.881472 1.3284527
N -0.19925432 0.29187742 2.0775986
O 0.6306555 -0.37067878 1.2007886
H 1.0086669 -1.8987502 -1.0308045
H 0.58136356 -0.5548346 -2.1115842
H 2.050744 -0.46790624 -1.1171105
H -1.4585962 0.9859959 -0.8960295
H -1.8658664 1.474751 1.8021578
