10

O -0.37971365 1.6397761 -1.2166483
C -0.1690621 0.60671526 -0.35617653
C 0.5138116 -0.574045 -0.5351392
N 0.40798312 -1.2374234 0.65034044
N -0.2873757 -0.56771356 1.5684465
C -0.6478327 0.5591324 0.9719399
H -0.031250022 1.4021568 -2.0839534
H 1.0469184 -0.984135 -1.3805218
H 0.78247684 -2.141663 0.88220197
H -1.2359557 1.2971994 1.4995103
