11

N -0.35916093 0.49402398 1.9622638
C -0.1551261 0.18311305 0.61313957
C 0.5245776 -0.8693299 0.053771462
N 0.34354213 -0.7147101 -1.313632
C -0.41947344 0.38552323 -1.4944173
N -0.7355803 0.9569933 -0.3567305
H -0.7515818 1.42333 2.045236
H 0.47437015 0.4162092 2.5277703
H 1.0823659 -1.6923635 0.46993777
H 0.7119534 -1.314265 -2.0316522
H -0.7158866 0.73147595 -2.4756868
