10

O -0.35088267 -1.04211644 -0.44753564
C -0.28830766 -0.31381756 0.78048305
C 0.92499720 0.59536143 0.85477518
O 0.99571402 1.48514532 1.66270138
C -0.50464961 -0.27562695 -1.54094169
O -0.53601928 0.92458537 -1.54233182
H -0.58923929 -0.91962700 -2.42414835
H -1.19440960 0.27706763 0.93773868
H 1.75073850 0.34519393 0.15755612
H -0.20794134 -1.07616606 1.56170295
