10

O 0.9804987 0.42472583 0.7140826
C 0.9892698 -0.7196937 -0.067545354
C -0.83886516 -0.03798768 -0.58280975
O -1.7894654 -0.17896174 -1.262135
C -0.38037425 0.79509425 0.6160724
O -0.016533662 -1.5115535 0.1011306
H 0.47895083 -0.039964046 -1.1853523
H -0.46695924 1.874613 0.46515143
H 2.0040882 -1.0714277 -0.2806079
H -0.96060956 0.4651554 1.4820136
