10

O -0.01618445 -1.3747082 -0.9566808
C -0.40641037 -0.3859625 -0.050272536
C 0.68463707 0.0069003464 0.9438945
O 0.6332095 1.3839744 0.47476426
C -0.26104632 1.0722631 -0.50188506
O -0.6914457 1.7709677 -1.366048
H -0.6533032 -1.3913583 -1.6816595
H -1.3842866 -0.5828087 0.4097729
H 1.6533146 -0.44394806 0.7233021
H 0.44151574 -0.055320125 2.004812
