11

O 0.9430071 1.2580305 -0.045100518
C 0.2667747 0.8247171 1.0782101
C 0.2674919 0.06927488 -1.4265835
N -0.5585009 -0.22419731 0.7936091
C -0.3250474 -0.93291014 -0.46046188
O 0.371415 1.3845624 2.1338444
H 1.4388494 0.6487023 -0.6958561
H -1.2794344 -1.3157349 -0.8372271
H -0.97811264 -0.677367 1.5921959
H -0.5055449 0.74427605 -1.8113954
H 0.35910216 -1.779354 -0.32123497
