11

C 1.3805865 0.007825698 0.023890022
N 0.2405873 -0.6247166 -0.62925273
C -0.998172 -0.5009653 0.11020281
C -1.4278622 0.9023272 0.3353816
N -1.7094603 2.014277 0.4689792
H 1.2488176 1.0850216 0.20777704
H 2.2659585 -0.13767754 -0.601428
H 1.5633694 -0.4870416 0.9850204
H 0.11853053 -0.24489266 -1.5618762
H -1.7958405 -1.0260348 -0.42444906
H -0.8865147 -0.98812264 1.0857549
