9

N -0.886811 -0.57619977 -1.2256002
C 0.23435824 -0.14517035 -0.5567793
C -0.05056664 0.3710575 0.7876427
N 0.956279 0.80303526 1.4893512
N 1.8369864 1.1781921 2.0869522
O 1.3486882 -0.15669055 -1.0427442
H -0.70438886 -1.0903586 -2.0753894
H -1.7053593 -0.85111266 -0.7045885
H -1.029186 0.46724698 1.241156
