9

N -0.41903028 1.5064094 0.0063442537
C 0.07156686 -0.38147452 -0.6636377
C 1.1448948 -0.0137643805 0.2483397
N 0.69664896 1.1338011 0.69155574
N -1.0348758 -0.97260666 -0.292433
O -0.26427877 0.79272085 -1.273663
H 1.9577187 -0.55941683 0.70458794
H -0.8849677 -1.7713838 0.31481656
H -1.2676767 0.2657149 0.26408958
