10

O -1.7691073 -1.1034371 1.2138407
C -0.8776163 -0.5476092 0.6022455
N -0.86564183 -0.13705222 -0.7221649
C 0.34485832 0.46544066 -1.0522096
C 1.1136279 0.4472762 0.050879568
N 0.37460154 -0.16955146 1.0595915
H -1.6498919 -0.28510842 -1.3333198
H 0.5453549 0.8500877 -2.0399914
H 2.1146832 0.8141744 0.21438012
H 0.669132 -0.33422053 2.0067484
