11

C 0.9003676 -0.805766 -0.34164038
C -1.217006 1.0584189 -1.2895348
N -0.46297833 0.39565933 1.2978439
C -0.41246206 -0.18712609 0.06234288
N -0.096052654 1.4435855 -1.3174696
H -1.2690134 -0.81971335 -0.13994472
H 0.26699868 1.0742681 1.4745889
H -1.3712896 0.75668067 1.5599145
H 0.8853369 -1.0766994 -1.3984029
H 1.0376092 -1.7123344 0.26189277
H 1.7384897 -0.12697342 -0.1695901
