11

C -0.66292242 1.05893983 -0.25551772
C 0.08800846 -0.07660423 0.42834506
N 1.43949804 -0.16631536 -0.05593421
C -1.19934260 -2.33553297 0.05679559
N -0.64647292 -1.31602143 0.24757780
H -1.68160676 1.13667358 0.13346819
H 0.13061981 0.10055577 1.50719877
H -0.13224648 1.99780165 -0.07702432
H -0.71692183 0.88218947 -1.33548187
H 1.44153235 -0.36275418 -1.05301762
H 1.93985441 -0.91893192 0.40359039
