11

N 0.2446753 -0.754571 1.3599757
C -0.6718826 -0.3771231 0.4191084
O -0.18892553 -0.6221775 -0.86455184
N -1.8388824 0.09305429 0.52986234
C 0.5390171 0.35335165 -1.4605565
N 0.9350472 1.3829572 -0.84953076
H 1.4694974 1.9695851 -1.4818866
H -0.10304437 -0.93683213 2.2889798
H 1.011256 -1.3314087 1.0554687
H 0.7129462 0.062624745 -2.5037277
H -2.109704 0.1605395 1.5068586
