9

O -0.9040671 1.1010674 -0.9558328
C 0.89222383 -1.0767711 -0.77621
C -0.8491351 1.1253428 1.4596319
N 0.27176276 -0.5646622 0.16826719
C -0.51818377 0.59349215 0.058358107
N 1.6455665 -1.5760858 -1.5701555
O -1.5221748 2.1040893 1.6124036
H -0.41299063 0.53449625 2.286277
H 1.3969985 -2.2409687 -2.2827396
