9

O 0.86672837 -1.0008601 -0.5618889
C -1.3115209 -0.13556945 -0.97497517
C 0.4521991 -0.11710683 0.15639102
N -1.2105881 -0.99343026 -1.8570256
C 1.2580395 0.47058967 1.3104509
N -0.80949396 0.49106058 0.036224525
O 2.3633387 0.08150948 1.5671932
H -2.339373 -0.06522596 -1.5417117
H 0.73067063 1.269033 1.8653414
