9

O -2.94109701 0.56237076 0.61460613
C -1.84299371 0.13970469 0.83774033
C -0.73049254 0.20784876 -0.21756042
N 0.44505850 -0.36523988 0.29922404
C 1.56599829 -0.24121984 -0.21786168
N 2.71294912 -0.07431809 -0.54009979
O -0.87786564 0.66994899 -1.31294452
H -1.53561215 -0.32015516 1.79518968
H 3.20405535 -0.57894019 -1.25829380
