9

O 1.5835676 -0.2793693 -1.5382713
C 0.62071556 -0.14716972 -0.61355215
N 0.34783536 0.99482095 -0.017095951
N -0.6687195 0.62543523 0.80442345
C -0.93470514 -0.6803748 0.65299183
N -0.13102977 -1.2128934 -0.24555062
H 1.9913535 0.5887549 -1.6574256
H -1.1010978 1.3063172 1.4071282
H -1.7079197 -1.1955209 1.207352
