11

C 0.03241948 0.58211751 0.44210080
C -1.22188348 0.16094555 0.61787003
C 0.62890938 -1.08768510 -1.09687089
O 0.99213631 0.05981529 -0.34399316
C 0.51383711 1.74967277 1.15164332
N 0.87792281 2.68447951 1.72779592
H 0.34090487 -1.91343590 -0.43800271
H -1.61312972 -0.70750623 0.09629072
H 1.51918888 -1.36085111 -1.66290665
H -1.87813346 0.69077055 1.29111620
H -0.19217214 -0.85832312 -1.78504364
