11

C -1.3608739 0.12779766 0.17987801
C -0.16028047 -0.13335009 0.70135075
C 1.033702 0.15148394 -1.3000863
O 1.0369931 -0.15295103 0.086573124
C -0.031802583 -0.4489517 2.1092882
N 0.048475783 -0.6983457 3.236112
H 2.0745609 0.08810694 -1.6166457
H 0.431777 -0.5727704 -1.8587098
H -1.4884695 0.37268135 -0.8703974
H -2.237733 0.102371275 0.80845624
H 0.65365064 1.1639277 -1.4758193
