9

O -1.44417972 -0.78392243 1.78086289
C -0.77542061 0.25664687 1.22918353
C 0.12121372 0.20580943 0.27842298
C 1.02984442 0.15731713 -0.66622459
C 0.51500507 0.28317969 -3.17448248
N 0.71967378 0.23212711 -2.01581600
H -1.18817653 -1.60680678 1.34163735
H -1.06967516 1.19924865 1.68398691
H 2.09171496 0.05640045 -0.45757065
