10

N -1.2308269 0.041566618 0.14915115
C 0.7574301 0.8139474 -0.28296384
C -0.635326 1.21202 -0.28778285
C -0.34826502 -0.94881403 0.50556165
C 0.917724 -0.5216271 0.2419777
H -2.2317793 -0.05596829 0.21954522
H 0.069226585 0.90341634 -1.3633264
H 1.8380274 -1.0665668 0.3950025
H -0.69626707 -1.8932076 0.90735817
H 1.5600562 1.5152333 -0.48452336
