10

N 0.80450183 -0.15878567 1.6802183
C -0.381071 0.14028266 1.3650103
O -0.7922738 0.20949681 0.08772368
C 0.21520904 -0.086401425 -0.8718094
C -0.3827737 0.039592043 -2.2028804
N -0.8122809 0.12770121 -3.2718375
H 0.91705716 -0.15769695 2.6915178
H -1.2197524 0.37998787 2.0232103
H 0.59562045 -1.1025554 -0.72723293
H 1.0557634 0.6083788 -0.77392036
