11

N 1.5154152 -0.8586961 -1.7291764
C -0.5639913 0.28222728 -0.20965408
C -0.48286688 1.1080263 0.9898398
C 1.9036858 -0.38915023 -0.7015882
C 0.2858172 -0.9515019 -0.3476221
O -1.5595168 0.19529814 0.7905542
H -0.21205494 -1.7016468 -0.96509224
H -0.88292617 0.72840965 -1.1525363
H 0.523016 -1.4038767 0.6157603
H -0.74552566 2.1623874 0.9361468
H 0.21894757 0.828523 1.773368
