11

N 1.3314096 -1.1348479 -0.7528235
C 0.055483725 0.6075294 0.33082187
C -1.2604584 0.9042546 -0.22954611
C 1.953429 -1.3314111 -1.7235732
C 0.56117696 -0.8182355 0.40272754
O -1.0333606 0.8934513 1.17652
H -0.28673497 -1.5088478 0.47385728
H -1.8807807 0.08955817 -0.60204244
H -1.4540459 1.8818086 -0.66463786
H 1.1828269 -0.9570027 1.2929803
H 0.83105457 1.3737428 0.29571596
