10

C 1.04286317 -0.14330161 0.15384864
C 0.22909724 -0.20128851 -1.01790286
N 0.28951480 1.07359953 -0.25434176
C -0.90718572 1.02283222 0.57588743
N -1.26908579 -0.15010769 0.88848323
C -0.23433828 -0.93861763 0.21290216
H 2.09967896 -0.23427458 0.36160153
H -1.40195459 1.94356679 0.86500975
H 0.40934150 -0.35268169 -2.07258470
H -0.25793120 -2.01972699 0.28709685
