11

C -0.53201324 -1.0804738 -1.4123938
C -0.018619208 -0.2507192 -0.2872557
N 1.1574855 -0.2605147 0.24819413
C 1.0911949 0.69334966 1.2535149
C -0.14269276 1.2349619 1.2678487
O -0.86967576 0.63775665 0.27989638
H -1.4262102 -1.6341299 -1.1091945
H 0.24257655 -1.785479 -1.7115034
H -0.79861426 -0.45696718 -2.271859
H 1.938339 0.9141472 1.8880752
H -0.64177054 1.9880682 1.8546772
