11

C -0.43822724 0.695396 0.066842966
C -1.5919706 0.122552715 0.7232992
N 0.24770609 1.4128312 -0.6023712
C 1.5437025 -0.67066616 -0.15884507
C 1.0759006 0.23460165 -1.0967461
O 1.0829178 -0.7781692 1.0006498
H -2.4383998 0.07220607 0.03135313
H 2.398685 -1.2850695 -0.4823196
H -1.8402176 0.7652866 1.5741343
H -1.3085489 -0.8618607 1.1019459
H 1.2684522 0.29289132 -2.1579432
