13

C 0.20045827 -1.521161 -0.598724
C -0.2066603 -0.05646006 -0.5835181
O -1.5746496 0.13168079 -0.23145485
C 0.7360795 0.7681729 0.3026807
O 1.9429859 0.6186565 0.26567647
N 0.09808293 1.6573484 1.1074746
H 1.2500079 -1.6165105 -0.8839922
H -0.42588583 -2.0771723 -1.3029835
H 0.08340314 -1.9664694 0.39847276
H -0.11437559 0.36079708 -1.5917968
H -1.7562033 -0.43748572 0.52732384
H -0.88720804 1.8157736 0.969304
H 0.6539651 2.3228292 1.6215371
