10

N -1.5823834 -0.92954606 -1.1310467
C 1.2218539 0.37330648 0.50832665
C 0.17917396 1.0248469 1.1078788
N -1.0185925 0.625506 0.5748278
C -0.6943872 -0.25309262 -0.33245182
C -2.3766346 -1.4868609 -1.794117
N 0.6462789 -0.454785 -0.42756814
H 1.1171515 -1.0838071 -1.0576056
H 0.21841198 1.7626252 1.8971235
H 2.2891273 0.42180726 0.65463257
