10

N 0.58119248 -0.52515568 2.00840398
C -0.76589149 1.08898854 -0.73302390
C -0.18614165 0.02166069 -1.36219045
N -0.55782766 1.03112034 0.62035030
C 0.13696409 -0.05809535 0.79663004
C 0.94226476 -0.88914784 3.06586959
N 0.39778812 -0.72009373 -0.36131706
H -1.32449000 1.90188197 -1.17567005
H 0.91395328 -1.57921939 -0.46038088
H -0.13781213 -0.27193981 -2.39867164
