10

O 1.4603118 -0.7418808 1.3775315
C -0.7014332 0.8502262 -1.7198323
C 0.8723601 -0.09865359 0.2875649
O -1.2374659 -0.740813 1.2318752
C -0.6313507 -0.23963623 0.33313102
O -1.3835084 0.26846474 -0.7473051
H 1.2511731 -0.5261028 -0.6498095
H 1.114071 0.97504336 0.2535971
H -1.5209156 1.1470412 -2.4112554
H 0.77675784 -0.8936891 2.0445025
