12

C 0.30391374 -1.4849906 -0.31075135
C -0.49127164 1.2944733 0.84024096
N 0.76465267 1.4450274 0.9227878
C -0.2371076 -0.21994531 -0.9549979
O -1.0897483 0.5034769 -0.057987794
H 0.57583916 0.4353003 -1.2837708
H 0.878008 -2.0588913 -1.0461221
H 0.985382 2.1080568 1.6591828
H -0.88304394 -0.4546237 -1.8036938
H -1.2561032 1.7769217 1.4571363
H 0.9645838 -1.2317162 0.5230017
H -0.51510483 -2.1130893 0.05497398
