12

C -0.35076615 -1.1040251 0.9809418
C -0.25923476 -0.62901723 -0.4674962
N -0.26275548 0.81878215 -0.5865094
C 0.8779265 1.5520113 -0.49541068
O 1.9952472 1.0840726 -0.40887672
H -0.34525958 -2.1972678 1.0260864
H -1.2725264 -0.7471356 1.4545016
H 0.50357753 -0.72706556 1.5512959
H -1.0939056 -1.0179785 -1.0590422
H 0.6707801 -0.983763 -0.9224443
H -1.1426799 1.3109608 -0.5430011
H 0.6795966 2.6404262 -0.5300454
