11

O -0.66301196 -1.58855227 1.02088154
C -0.20711622 -0.55155655 0.50200675
C -0.52774559 0.61305635 -1.64814117
N -0.97238523 0.07988377 -0.55408490
C 0.92827246 0.15178533 0.84897551
O 1.67051328 -0.34016878 1.85215045
H -1.97461925 0.00394087 -0.40274615
H 1.21599654 -1.17066831 2.08530089
H 0.53085602 0.56064931 -1.86945294
H -1.21374618 1.10791808 -2.32073895
H 1.21298592 1.13371255 0.48584888
