11

O -1.50173 -1.0503477 0.3833969
C -0.16690655 -0.77252 0.06715349
C 0.02868325 0.23623517 -1.0924598
N 0.76427287 1.0776407 -0.14765342
C 0.5042666 0.30034283 0.9456294
O 0.67821497 0.4413395 2.1305194
H -1.5585696 -1.1267148 1.3444734
H 0.43723124 -1.6833129 -0.041443374
H 0.6269307 -0.11084116 -1.9385283
H -0.9170459 0.6625253 -1.4328653
H 1.1046522 2.0256534 -0.21822248
