12

N -0.5445974 -0.18758385 0.2920567
C 0.26541108 0.9105674 0.6142398
O 1.0291852 0.93150675 1.5559222
N 0.08311135 1.9597492 -0.25358343
C -0.033691607 -1.5210024 0.5053367
C -0.24986757 -1.0093012 -0.8740855
H -0.738743 -2.2278264 0.9340114
H 0.45434627 2.8425906 0.063799985
H -0.7740023 1.992407 -0.78369695
H -1.1165407 -1.3293492 -1.4486479
H 0.9930084 -1.6030159 0.85214996
H 0.6323804 -0.75874186 -1.4575031
