12

N -0.61523803 0.06820884 0.18412195
C -0.51972400 -1.04325417 1.10066173
O 0.96917712 1.41099022 1.19063983
N 0.64191625 1.53555493 -1.06857084
C 0.39316703 1.04234705 0.18920601
C -0.36189066 -1.25813915 -0.36231088
H -1.44795542 -1.32620848 1.58931591
H 0.37655782 -1.09829527 1.71284465
H -0.07624271 1.43141644 -1.76866624
H 1.17708825 2.39056375 -1.09109606
H -1.17562164 -1.68421129 -0.94538841
H 0.63876592 -1.46897252 -0.73075797
