10

O -0.24229626 -0.1731554 2.0260446
C -0.10719993 -0.037163146 0.6903948
C 0.70262045 -0.6156573 -0.2596486
C 0.2946659 0.010024149 -1.4644477
N -0.6726041 0.8891556 -1.2782702
N -0.9048414 0.8448682 0.05332177
H 0.39416206 -0.8283816 2.3386729
H 1.4650959 -1.3667452 -0.11106575
H 0.679896 -0.15611987 -2.4612145
H -1.6094986 1.4331747 0.46621263
