10

O 0.96759724 0.24670885 1.46185859
C 0.19473733 0.22690830 0.33972964
C 0.01862872 -0.70503715 -0.79001155
C -1.28538292 0.49011817 0.09464798
N 0.82528266 0.52492517 -0.95017657
N -1.40453320 -0.29564126 -0.92934493
H 0.51419535 -0.23317730 2.16734336
H 0.39590974 -1.69710913 -1.00677377
H 1.80947075 0.26251460 -0.85888016
H -2.03590567 1.17978989 0.47160737
