10

O 1.7698225 0.3310178 0.17199373
C -0.3128536 -0.1873487 -1.0628092
C 0.4656196 0.448062 0.03526508
C -1.0772617 -0.82479817 -0.129482
N -0.7137148 -0.3943699 1.1375378
N -0.28256637 1.1215358 0.93553597
H -0.38372454 0.061508324 -2.1115818
H -1.8351337 -1.6012862 -0.22428857
H 0.2849363 1.335873 1.7525165
H 2.0848765 -0.2901938 -0.5046875
