11

N 1.72984281 0.19514474 -0.01004087
C 2.68537412 0.19376952 0.66914422
C -0.72227951 0.00235780 0.03354177
N -1.86093790 0.46594122 -0.30335107
C 0.54126438 0.17183390 -0.79955296
N -0.58404785 -0.79844117 1.13376278
H -1.38865569 -0.80279108 1.74754011
H -1.81101827 0.96977708 -1.18416386
H 0.48380499 1.10155155 -1.37085037
H 0.61239088 -0.66375914 -1.50504078
H 0.31426218 -0.83538462 1.58901092
