9

N -0.36918646 0.010908431 1.0230827
C 0.8655611 0.5647227 0.6020491
C -0.24683459 -0.33524978 -1.0674897
C 1.0166101 0.3784451 -0.7477437
N -1.0807511 -0.52859384 0.14082417
H 1.4806035 1.0296838 1.3640468
H -0.07228727 -1.3327278 -1.4927386
H -0.8715576 0.19541349 -1.7986479
H -0.7221575 0.01739798 1.9766172
