9

N -0.77361315 0.24183078 -0.8767071
C 0.57274234 0.30735797 -0.76245135
C 0.8700312 -0.110118 0.5150322
C -0.38650176 -0.40590185 1.088254
N -1.3790185 -0.19000217 0.23737334
H -1.3401849 0.47341713 -1.6772343
H 1.1977123 0.6382671 -1.5787379
H 1.8457574 -0.1890419 0.9701228
H -0.60692453 -0.765809 2.0843482
