10

N 0.24545987 1.27250918 0.57117066
C 0.39768816 0.07929200 0.17690580
O -0.63115589 -0.63935806 -0.38553145
N 1.51604378 -0.71655659 0.18913371
C -1.78567702 0.01248804 -0.71052176
O -2.70718153 -0.58619281 -1.17342168
H 1.10780691 1.65954045 0.94311975
H 2.24589796 -0.46776519 0.83704167
H 1.36008019 -1.70613442 0.06351996
H -1.74896268 1.09217704 -0.51141642
