11

N 0.73927367 1.7346306 2.339074
C 0.249409 1.3222011 1.3790624
C -0.34735635 0.7814913 0.14450271
C 0.57820356 -0.117773786 -0.700266
C -0.4007362 -1.232083 -0.31139445
O -1.2422996 -0.29991397 0.39992344
H -0.83396626 1.6032141 -0.39165726
H 0.59178597 0.14237383 -1.7590327
H 1.5983754 -0.22188185 -0.32637295
H -0.9361368 -1.71317 -1.1332314
H 0.0034475313 -1.9990883 0.35939178
