11

N -1.7884473 -2.31615 -0.321349
C -1.4568231 0.16965885 0.19853899
C 0.93536854 0.43434778 0.3887979
C -0.341002 0.9087637 -0.38288727
C -1.5685812 -1.1790155 -0.18136373
O 1.4113079 -0.8034959 -0.059685584
H 1.7167473 1.1697845 0.17692555
H -0.14104639 0.71123964 -1.4429593
H -0.44951376 1.9860537 -0.2185774
H 0.74497515 0.4426688 1.4714167
H 0.93701494 -1.5238557 0.37114304
