11

N 2.708522 1.0566804 -0.77864444
C 1.8110201 0.69015175 -0.14390892
C -0.8675629 -0.6951158 -0.40644836
C 0.7592933 0.27364448 0.71767354
C -0.6614454 0.643806 0.3044876
O 0.24817559 -1.4580786 0.11223909
H 0.565653 -1.0043077 1.0775928
H -0.7105908 -0.6018174 -1.4854176
H -1.3078701 0.79168826 1.1728303
H -0.7305239 1.510107 -0.35675016
H -1.8146704 -1.2067584 -0.21365388
