9

N -1.7073928 0.3384596 0.37970048
C 0.59027547 -0.1884594 -0.017946815
C -0.66015494 0.46482787 -0.3858369
N 1.6873842 -0.1663346 -0.65379053
N -2.6178563 0.23761594 1.0331969
O 0.4920855 -0.8741657 1.1428279
H 1.6264852 0.3857037 -1.506002
H -0.7808448 1.063566 -1.2743604
H 1.3700187 -1.2612134 1.2822111
