9

N 0.12511048 1.5355561 0.7363209
C -0.36496568 -0.84815073 0.22695225
C 0.1556799 0.46953356 -0.022494778
N -0.19798136 -1.7492446 -0.7081604
N -0.05754796 -2.5234308 -1.5105942
O 0.76292723 0.79662025 -1.1093448
H -0.29799235 1.6051687 1.6513909
H 0.7548955 1.8790618 -0.38649303
H -0.8801258 -1.1651143 1.122423
