10

O 1.4312214 1.488042 -0.3873515
C 0.11533654 -0.6388668 -0.72558945
C -0.81661403 -0.7879374 0.45738596
C 0.5582331 0.49622512 -0.1540995
N -0.17459601 0.4394207 1.0401216
H -0.67931694 -1.6658481 1.0945951
H 0.4188709 -1.2766062 -1.5433364
H -1.8812025 -0.63620603 0.25300732
H -0.79294395 1.2254499 1.224856
H 1.8210115 1.3563268 -1.2595892
