10

O -1.0051832 1.7983483 -0.46823853
C 0.64515346 -0.8624365 0.15377626
C -0.37650695 0.021091104 0.90706104
C -0.5936062 0.5886163 -0.3732336
N 0.16412883 -0.24488595 -1.1329564
H -1.1663103 -0.39662242 1.5222225
H -0.6307558 1.5527809 0.72859
H 0.77826583 0.10321763 -1.8615495
H 1.6942722 -0.6159492 0.34252763
H 0.49054214 -1.9441602 0.18180057
