10

O 1.31349764 1.07830073 -1.23478594
C 0.51898360 0.35072333 -0.43503950
C 0.17304827 -0.93219089 -0.22137705
C -0.75677351 -0.42787931 0.86088263
N -0.21974084 0.95022250 0.59516253
H 0.53458883 -1.90403712 -0.52528170
H -0.55747751 -0.75664295 1.88450793
H 1.72170865 0.49009880 -1.88090208
H -1.82777716 -0.49913065 0.64636905
H -0.90005802 1.65053548 0.31046417
