11

O -1.6141052 0.1208394 -0.67953295
C 0.39097875 -0.4447618 -0.95211583
C 0.7595888 -1.0782188 0.13439368
C -0.6601996 0.6202253 0.011725321
C -0.049120452 -0.28473997 1.1367455
N 0.017214386 1.7259779 -0.26150984
H -0.8210222 -0.8664792 1.6428114
H 0.41943046 -0.31926423 -2.0203826
H -0.42339468 2.1534634 -1.0805604
H 1.4232373 -1.9281405 0.24048519
H 0.5573926 0.30109838 1.827941
