11

O 0.80317765 -0.25732538 1.0549413
C -0.6180344 0.3780139 -0.71964633
C 0.08338147 0.814414 0.5528044
C 0.60892713 -1.3239987 0.20219237
C -0.18169643 -1.0565242 -0.83078986
N 0.03966032 1.9496276 1.0937709
H 1.125144 -2.2294722 0.49286234
H -0.4634885 -1.747756 -1.6116934
H -0.297456 1.0000701 -1.5616641
H 0.6007984 1.9713424 1.9419471
H -1.7004137 0.5016086 -0.6147249
