12

O -1.0545031 -1.0514951 -1.297509
C 1.7691377 -0.3622982 1.4061675
C -1.1946206 -0.025250342 -0.34177938
C 0.10663952 0.7428954 -0.14290927
N 1.1949265 -0.16013838 0.2444762
H -0.004182097 1.493996 0.64543945
H 1.5398558 -0.70671487 -0.54115534
H 1.3128527 0.3705532 2.1070473
H -1.537039 -0.42031753 0.6268556
H -1.9661436 0.65113586 -0.72517914
H -0.554726 -1.7749879 -0.9050583
H 0.38780183 1.2426219 -1.0763958
