12

O -0.5456585 0.6172022 -1.69727
C 0.18758956 1.1726813 -0.6327309
C 0.3629078 0.16327323 0.48844448
C -0.7125444 -0.78814954 0.8352845
N 0.423597 -1.2207898 0.01758444
H -0.23788074 -0.30041 -1.7640791
H -0.36160967 2.0494678 -0.271648
H 1.1815317 1.5122951 -0.9648595
H 1.0451316 0.45707026 1.2834337
H -1.6560532 -0.73831415 0.30111706
H -0.7734985 -1.1446187 1.8617479
H 1.0864875 -1.7797078 0.54297584
