10

N -0.61796266 -1.749732 0.20218216
C -0.76423526 -0.3996305 0.158777
O -1.8134139 0.18772043 0.3192401
N 0.45020294 0.2560639 -0.11193295
C 0.5696011 1.5553654 -0.23634069
O 1.7861881 1.8149127 -0.4929886
H -0.21813127 2.2999659 -0.14050165
H 1.7305781 0.49901575 -0.38497958
H 0.29402533 -2.1741495 0.19473474
H -1.4168525 -2.2895322 0.49180943
