11

N 0.29069406 1.0147016 -1.9064155
C 0.8516109 -0.73296016 -0.24154522
C 0.18153696 -1.1945379 0.99532694
C 0.1049402 0.46543923 -0.78652567
C -0.8035272 -0.11407957 1.2135607
O -0.79487264 0.8565206 0.1495326
H -0.59714526 0.38617316 2.1699977
H -0.33620688 1.8072879 -2.0312328
H 1.8477178 -0.41699046 0.1252035
H 1.0615004 -1.513206 -0.97779375
H -1.8062483 -0.5583486 1.2898915
