10

N 0.975379 1.4204265 0.55738056
C 0.26003805 0.31905824 0.10075874
N 0.24419084 -0.023071047 -1.1824429
N -0.4735811 -1.1406811 -1.1873726
N -0.9350983 -1.5504085 -0.029516468
C -0.48252136 -0.63819355 0.82585436
H 0.50079125 1.9481196 1.2753357
H 1.2519304 2.0246491 -0.20566675
H -0.6475805 -1.652163 -2.0374072
H -0.69354826 -0.70773596 1.8830768
