10

N -1.0863329 0.7249615 -1.068677
C -0.15441199 0.13836555 -0.23879556
N 0.7146241 -0.7805708 -0.6809528
N 0.9725804 -0.5744333 1.5425807
N 1.4370021 -1.2122171 0.49520847
C 0.057329208 0.30306634 1.1360195
H 0.68639386 -1.9222422 -0.16851337
H -1.3747101 1.6523671 -0.7937557
H -0.84066886 0.6761456 -2.0469766
H -0.41180596 0.9945572 1.8238624
