10

N 0.11078547 0.45612551 1.64667569
C 0.72877974 0.83730270 -0.29700395
N 0.83703972 1.29531430 0.94802989
N -0.45496252 -1.16008082 -1.31297936
N -0.48399643 -0.52059943 0.97570618
C -0.09760831 -0.30329473 -0.27823925
H -1.20075510 -1.78324158 -1.03274757
H 1.23468338 1.32055617 -1.11993825
H -0.68707458 -0.68610285 -2.17412256
H 0.01310865 0.54402102 2.64461941
