10

N 0.8040961 -0.15949231 1.6807737
C -0.38049793 0.14012128 1.3646013
O -0.79360586 0.20847228 0.08783133
C 0.21482687 -0.085185535 -0.8715136
C -0.3857672 0.040685702 -2.2032208
N -0.8139829 0.12540027 -3.2737672
H 0.9199647 -0.15918407 2.690749
H -1.2175735 0.37927797 2.0262578
H 0.59759986 -1.099803 -0.72791874
H 1.0549399 0.60970736 -0.7737926
