11

N -1.6052796 0.10327669 1.2569599
C 0.49886015 -0.07786942 -1.4917222
C 0.8958913 -0.00028529394 0.65821946
N -0.75712395 -0.017553799 -0.9145222
C -0.6178369 0.039759416 0.4689543
N 1.4839993 -0.07224785 -0.68133813
H -1.6473511 -0.013007564 -1.384092
H 1.1936556 -0.87421745 1.2501568
H 1.2552692 0.8912006 1.1836418
H 0.59340185 -0.12586203 -2.5724368
H -1.2934856 0.14680678 2.2261791
