11

N -1.54615330 0.47180639 1.24673401
C 0.87325224 -0.18437556 0.66280495
C -0.59505485 0.18134778 0.46502057
N -0.74130578 0.13240047 -0.91805850
C 0.47224325 -0.20988846 -1.48764687
N 1.43364531 -0.40537675 -0.67232884
H 1.41746886 0.61612495 1.17563574
H 0.97244405 -1.09206396 1.27031921
H -1.23389469 0.46271634 2.21673821
H -1.60839849 0.32288652 -1.39228012
H 0.55575369 -0.29557772 -2.56693776
