11

N -0.7369069 0.63209194 -0.9982711
C 0.39141938 0.85450184 -0.12436337
C 0.400768 -0.42991123 0.5543847
N -0.40362176 -1.3817515 -0.006500196
C -1.0811945 -0.66647214 -0.89128464
N 0.9620764 -0.25248492 1.73123
H 0.8473614 1.0003716 1.284485
H 1.3321248 -1.0168027 2.283858
H 1.3063028 1.0796293 -0.67999065
H -1.120319 1.2631695 -1.6815305
H -1.8980106 -1.0823418 -1.4720174
