11

N 1.916649 0.6237947 -1.2079169
C 0.88766545 0.26637566 -0.5665265
C 0.055479888 1.1210346 0.30303818
C -0.93362916 0.38181815 0.79675174
C -0.8056891 -1.0204564 0.2758978
O 0.34900054 -0.99236894 -0.5600118
H 2.3075755 -0.15717848 -1.733848
H 0.2709043 2.167686 0.46729314
H -1.7240095 0.693391 1.4686893
H -1.6725861 -1.330175 -0.3185144
H -0.6513611 -1.753921 1.0751476
