11

O -2.1095083 -0.76908755 0.6737853
C 0.45431015 0.51672286 -1.374474
N -0.84423554 0.16645221 -1.0409014
C 1.0712116 0.20952077 -0.101226225
O 2.4096432 0.07203023 0.06990208
C -0.9228812 -0.36481762 0.22285964
N 0.2035303 -0.38471153 0.8468135
H -1.9707577 -1.1224358 1.5653632
H 2.5621989 -0.054412317 1.0154693
H -1.6471254 0.33329573 -1.625705
H 0.7936141 1.3974429 -0.25188622
