9

N 1.2569656 -1.0287164 0.76054686
C 0.46258864 -1.9841489 -0.5158387
O -1.6218276 0.4657655 -1.414892
C -0.7593805 0.42829564 -0.56444633
C 1.7217858 -2.1736696 0.6760257
C 0.016227957 -0.7976179 -0.38026798
N -0.41644794 1.4437246 0.26913288
H 0.27637157 1.3415884 0.9892308
H -0.9362835 2.3047786 0.18050893
