9

N -1.6621541 -0.5692099 0.16396949
C -0.41936013 -0.57488084 -0.60400325
O 1.882385 -0.13704397 -0.84193844
C -2.155654 -0.014284864 -0.8661515
C 0.88772225 -0.00064835354 -0.16216817
C -1.0445422 -0.98935574 -1.7193394
N 0.8252666 0.6466543 1.0239565
H 1.6873387 1.0072232 1.4056854
H -0.0010020131 0.631546 1.5999893
