9

N -0.10229893 0.85415195 1.18645393
C -0.36991276 -2.17809392 -0.71856688
O -0.29067065 1.85879349 -0.85522618
C -0.08404033 0.88305895 -0.16581238
C 0.23073320 -0.43695573 -0.79183505
C 0.08304254 -1.09290215 -1.95568150
N 0.59663115 -1.65873093 -0.07927965
H 0.18820734 0.04355724 1.70923897
H -0.25169174 1.72712070 1.67070855
