10

C -1.2217741 -0.38409787 -0.35021615
C -0.09226761 -0.81268644 -1.0441236
N 1.1364167 -0.4321082 -0.69805986
C 1.2213868 0.3827887 0.35012382
C 0.09124059 0.8124424 1.0436457
N -1.1347334 0.43212578 0.6980547
H -2.216538 -0.7049192 -0.647324
H -0.18064092 -1.4779758 -1.8986727
H 2.21646 0.7050778 0.6484339
H 0.18044999 1.4793526 1.898138
