10

O -2.212354 0.0023790523 0.39155754
C 0.9896286 0.29483724 -0.8219357
O 1.3118026 -0.26528826 0.35984933
C 0.08747453 -0.4912336 1.0658084
C -1.0289664 0.018322583 0.1476621
C -0.31882223 0.5001593 -1.0439696
H -0.009367545 -1.5613592 1.266446
H 1.8426127 0.5134323 -1.4565055
H 0.11716191 0.056976322 2.0118701
H -0.77917016 0.93177414 -1.920783
