10

O 0.3640081 0.048515223 -1.3138746
C -0.72764146 -1.0166253 0.7712936
O 1.0877453 0.5093526 0.96747464
C -0.5397466 0.98246396 -0.64710534
C 0.59920084 -0.6578504 -0.17312363
C -0.19935915 0.3050841 0.71059614
H -1.5632877 0.8362776 -0.98852694
H -0.17144118 2.0022304 -0.75605536
H -0.19745155 -1.5711118 1.5603474
H 1.3479733 -1.4383365 -0.13102597
