10

O 0.038363285 -2.5520973 0.5168385
C -0.23835698 -1.9915831 -0.50968266
O -0.24055035 -0.6665424 -0.69518596
C 0.13370873 0.09595405 0.46378452
C 0.10239705 1.5117621 0.10869849
C 0.09015245 2.6859894 -0.13972779
H -0.52981484 -2.4893482 -1.4459401
H -0.56429625 -0.1194458 1.2795212
H 1.1353362 -0.20413364 0.7892722
H 0.07306075 3.729445 -0.36757833
