9

O -2.5776827 0.67843807 0.2929534
C -1.6325018 0.09689932 0.7616414
C -0.30190945 0.044498954 0.09658394
N 0.76157784 -0.5529436 0.5419761
C 1.6613772 -0.280743 -0.45527288
N 1.1866478 0.4282731 -1.4369301
O -0.12500449 0.65135366 -1.0769949
H -1.6622267 -0.44670597 1.7217795
H 2.689722 -0.6190706 -0.44573635
