12

C 0.50107634 -0.98303044 -1.5562954
C 0.5116906 -0.13315709 -0.30395555
N -0.09636545 1.2502491 1.9018501
C -1.0375769 0.7088063 1.2489725
O -0.8449409 -0.0023007968 0.13460387
H -0.47222656 1.7435391 2.7085583
H 0.92278945 0.8663161 -0.48762912
H -0.09016165 -0.513242 -2.3477228
H -2.1084945 0.7340338 1.4801908
H 1.1012083 -0.58854604 0.49975762
H 1.5266265 -1.1070015 -1.9216819
H 0.08637467 -1.9756658 -1.3566477
