12

C -1.20073224 0.92975707 0.91252295
C 0.81261701 -1.48291846 -0.88322618
N -0.54110701 2.01146273 0.92231415
C 0.51327146 -0.11507624 -0.30863729
O -0.76785615 -0.18982126 0.32621073
H 0.84019620 -2.24404520 -0.09767726
H -2.18365631 0.74544633 1.36068883
H 1.25843376 0.19390802 0.43306814
H 0.06039979 -1.77450128 -1.62198836
H 1.79028304 -1.46486211 -1.37766763
H -1.06192382 2.73133854 1.41821070
H 0.48007421 0.65931172 -1.08381864
