10

O -0.93784816 0.53331207 -1.66827621
C -0.58755327 -1.15266510 0.01620860
C -0.38505676 0.18976538 -0.64729911
C 0.59186368 1.13175282 -0.01536840
O 0.83404602 0.95146986 1.41614822
C 1.83680170 0.61840063 0.67677453
H -1.24052646 -1.76521421 -0.60786250
H 0.55546936 2.17152841 -0.33195849
H -1.04141188 -1.02263758 1.00474412
H 0.37421567 -1.65571248 0.15688911
