10

O -0.117496885 1.0875622 -1.9360158
C 0.013257233 0.51758254 -0.88244367
N 1.0384411 0.36196223 -0.041047346
C -0.5956562 -0.8625051 1.1548146
C 0.6743829 -0.4247817 1.1169386
N -1.0889974 -0.24444702 -0.19513334
H 1.4506092 -0.5958192 1.8503991
H -1.4309335 -0.9842035 -0.8084946
H 1.9383643 0.7719318 -0.2375641
H -1.8819709 0.37271765 -0.021453071
