12

O -0.54392296 0.6173071 -1.6996793
C 0.18642612 1.1717622 -0.63326156
C 0.3626866 0.16316393 0.4882847
C -0.7123406 -0.7880902 0.8363617
N 0.42306855 -1.2203704 0.016435292
H -0.23528804 -0.30029413 -1.7651801
H -0.36622286 2.0474043 -0.2737268
H 1.1807048 1.5128642 -0.9628023
H 1.0452739 0.4577595 1.283187
H -1.656927 -0.7385805 0.3048458
H -0.7712149 -1.146192 1.8625987
H 1.0877563 -1.7767342 0.54293674
