11

C 0.072962165 0.8857395 -0.77622354
N 0.4333469 -1.696496 -1.4067765
C 0.18572736 -0.6212874 -0.92552173
C -0.38275483 -0.40592873 1.0206265
N 0.030530218 0.9421778 0.66763085
H -1.4732635 -0.49446905 1.0869507
H 0.07932696 -1.6108592 -0.1554545
H 0.89519584 1.4319613 -1.2540318
H 0.9408953 1.1602086 1.0483009
H -0.8752328 1.1986817 -1.232236
H 0.093266256 -0.7897284 1.9267355
