9

O -2.20786920 -0.80274875 0.59110351
C -0.17830258 0.06763542 -0.30400726
C 1.10771340 0.03162891 -0.55069794
C 2.88574787 1.02978347 0.99973492
C -1.46538214 0.10480534 -0.08045656
N 2.04675176 0.58320412 0.30722346
H -1.63607308 -1.50623759 0.92934746
H -2.08090789 0.91971559 -0.45140071
H 1.52832180 -0.42778659 -1.44084656
