9

O -1.3207502 -0.6623201 0.8810204
C -0.59946334 0.29928884 0.15585433
C 0.86079323 0.19593598 0.34046277
C 2.044055 0.07543396 0.50936526
C -0.9288783 0.23351942 -1.2936975
N -1.2074387 0.15375353 -2.411329
H -0.9982693 -1.5382099 0.63186425
H -0.94889325 1.267945 0.5274043
H 3.0988448 -0.02534682 0.65905553
