9

O 1.4487649 0.6691787 -1.2340922
C 0.45131645 -0.13400395 -1.0008768
C -1.190841 1.2164053 0.21835364
C 0.39606297 -1.0244569 0.07021494
C -0.36296612 -0.88076967 1.0661306
N -1.765755 0.8077052 1.1782593
H -0.2757678 -0.16745363 -1.8070725
H -0.7928603 -1.1155782 2.0197663
H 2.092046 0.62897295 -0.5106837
