10

N -0.36633855 1.4102286 -1.1648427
C 0.03446933 0.14610747 -0.87109786
O 0.23974317 -1.1086853 2.330715
N 0.01899013 -0.10046458 0.5134587
C 0.36973748 -1.2320014 1.0715046
O 0.3820035 -0.6779401 -1.6924852
H 0.70978713 -2.136935 0.57086504
H -0.12642981 0.057839803 1.8400772
H -0.48592538 1.6419942 -2.1373935
H -0.776037 1.9998564 -0.46080118
