10

N 1.4780188 0.49895182 0.920547
C 0.2231576 0.62313324 0.37766057
O -0.4481402 1.6297942 0.44485483
N -0.2313973 -0.5476531 -0.23278433
C -1.456537 -0.640765 -0.87034345
O -1.8536648 -1.6702495 -1.3577873
H 1.8767599 1.3741575 1.2266722
H 2.1275508 -0.16649725 0.5329655
H 0.28935248 -1.411681 -0.16353507
H -2.0051003 0.31080878 -0.8782498
