11

N 1.4718797 0.3692801 1.3615324
C 0.43499878 0.20161188 0.44209522
N -0.27864653 1.2337859 0.024760699
N -1.2119467 0.6861141 -0.77964026
C -1.0969748 -0.6524571 -0.8913722
C -0.030344425 -1.0221779 -0.10532253
H 2.2835119 -0.19616555 1.1524445
H 1.7319448 1.3427219 1.4464693
H -1.8905461 1.2875298 -1.2148468
H -1.7713225 -1.2349443 -1.503259
H 0.3574457 -2.0152988 0.06713861
