11

N 1.39322889 -1.12778276 0.51171553
C 0.34667804 -0.29905435 0.09864874
N -0.60665932 -0.74648274 -0.75540294
N -1.50503197 0.20251157 -1.09579932
C -1.10046471 1.27251788 -0.44006375
C 0.05383848 1.02673993 0.33760668
H 2.05570555 -0.62375218 1.08703158
H 0.58824679 1.70926740 0.98311423
H -1.65340251 2.19791731 -0.53284405
H -0.65571652 -1.65115947 -1.19353852
H 1.08357710 -1.96072255 0.99953175
