11

N -1.30474768 -0.65399364 -0.81332090
C 0.88927298 -0.42218274 -1.15991622
C -0.15816246 0.55113247 0.81348321
N -0.08779550 1.14774250 1.92457118
C -0.51247291 -0.17495636 -1.72180541
C -1.29981287 -0.32297794 0.42644488
O 0.85633649 0.57263317 -0.09841189
H 1.06425721 -1.41707393 -0.73453465
H 0.82557719 1.59362802 2.02601532
H 1.69319922 -0.12161332 -1.82926669
H -1.96565168 -0.75233830 1.16674105
