11

N 2.120696 0.3640521 -0.70973647
C -1.816205 -0.2069202 0.027185347
C -0.826296 -1.0526062 0.5519527
N -1.3525122 1.1169403 -0.2987234
C 0.93652743 0.2088966 -0.29764795
C -0.10399997 1.2298393 -0.569702
O 0.5511419 -0.8315857 0.49421886
H 2.7215679 -0.4046787 -0.41037524
H 0.27850324 2.1714325 -0.96648294
H -1.0328095 -2.102424 0.7641837
H -1.4766138 -0.49294585 1.4151273
