11

O -1.7974641 0.6546554 -1.64544
C -1.1580874 0.027870094 -0.8646823
O -1.2144575 -1.3162792 -0.6035006
C -0.21980008 -1.2404004 0.45666498
C -0.04601007 0.23582196 0.13880454
C 1.1246244 1.100802 0.06501427
O 0.08944795 1.3004653 1.0223355
H 0.62875974 -1.895466 0.25089803
H -0.6640838 -1.4613531 1.4298077
H 1.1873693 1.8526539 -0.7185258
H 2.0697012 0.74122965 0.46862373
