11

N 0.06040749 -1.7423234 0.075992875
C -1.1321129 -0.117220335 -0.5964377
C 1.018527 -1.1568184 0.5326993
C -0.22340123 0.85548174 -0.053391844
C 1.0236949 0.3450281 0.6557762
O -0.23156133 0.53044665 -1.4565152
H -0.71548516 -1.9994922 -0.52249897
H -2.19508 0.067585275 -0.7663744
H 1.936302 0.75435317 0.21008852
H -0.5737 1.8562315 0.2011295
H 1.0324095 0.606728 1.7195317
