11

O -0.37407666 1.0615761 -0.8258719
C 0.31289777 0.28775445 -1.6278058
N -0.6386306 -0.041008417 1.1799057
C 0.9779002 -0.35975763 -2.391658
C -1.2408012 0.4354943 0.080571
C 0.63095737 -0.27070725 1.4555532
H -2.1996825 0.91628164 0.19329403
H 0.8706532 -0.7617009 2.3868706
H 1.3836784 -0.015196845 0.7234667
H 1.5788198 -0.9305858 -3.0670006
H -1.3017157 -0.32214963 1.8926753
