11

O -0.5747473 0.27725154 1.2506081
C 1.8935356 0.4183103 1.4853607
N -0.9450523 -0.48127088 -0.82526565
C 0.8006793 0.29412735 0.97097415
C -1.3185116 -0.44879237 0.43063363
C 0.11240581 0.30070686 -1.2268157
H -0.01814338 1.3628219 -1.0471627
H -2.1232054 -1.0491058 0.83220583
H -1.3409239 -1.1983362 -1.4247575
H 2.932034 0.518533 1.7124497
H 0.5819295 0.0057543926 -2.1582305
