11

O 1.7577816 -0.91570383 -1.8280175
C 0.7360496 -0.26795405 -1.9152114
N -0.03408511 0.08417637 -0.85534245
C 0.33746502 -0.323391 0.4885718
C -0.5810449 0.25344574 1.4694818
C -1.3452975 0.7276089 2.2656224
H 0.33099708 0.10040147 -2.8765538
H -0.88032514 0.61708194 -0.99562687
H 0.32892692 -1.4181007 0.56686014
H 1.3643168 -0.00041866023 0.69501436
H -2.0147848 1.1428537 2.9852018
