11

N -1.4461336 0.42102918 1.4716343
C -0.7456157 0.3339968 0.43588066
O 1.5192544 -0.6181466 0.9264737
C 0.27928704 -0.12755877 -1.2497976
C 0.74189186 0.25535747 0.17160186
O -1.099479 0.1703311 -0.88114375
H 0.96216357 -1.3486096 1.2251934
H -2.4417026 0.3663128 1.2574321
H 0.40030494 -1.1892624 -1.4833218
H 1.2241179 1.2360905 0.2057239
H 0.60591155 0.50045943 -2.0796769
