10

C 0.38393942 2.052682 1.4993938
C 0.18075305 1.0927298 0.8046019
C -0.058864415 -0.04212998 -0.019041395
C -1.2063692 -0.7217086 -0.37522912
N -0.86866564 -1.7415384 -1.2016882
N 0.41742706 -1.7380674 -1.3793238
N 0.91537714 -0.725164 -0.67620736
H 0.55689603 2.9056952 2.119072
H -2.2290335 -0.5303046 -0.08718958
H 1.9085398 -0.5521936 -0.684388
