10

C 0.5929003 -0.92176145 0.83898544
C -0.37505355 0.5511286 -0.46150982
C 1.1849222 -0.8856877 -0.39713272
C -1.2894036 1.5685456 -0.87561285
N -2.0347033 2.3899672 -1.1921568
N -0.41031826 0.0054664672 0.7897762
N 0.577781 0.03204999 -1.2005054
H -1.0532498 0.24387693 1.5272892
H 2.0190785 -1.474662 -0.751415
H 0.7880465 -1.5089234 1.7222816
