10

C -0.66245204 0.1883589 0.25601158
C 0.89067185 -1.1948631 -0.007506115
C 1.5300357 0.05946134 -0.302533
C -1.9085413 0.84507143 0.5528835
N -0.44185415 -1.0867221 0.3627406
N -2.8872898 1.4062331 0.77940667
N 0.43107575 0.8903953 -0.17856257
H 0.4395026 1.8848572 -0.3494813
H 1.2049903 -0.8468813 -1.2050914
H 1.4038612 -2.1459105 0.09213194
