11

C -1.3058611 0.10379703 -0.7835707
O 0.06863931 -0.016903287 -1.0858622
C 0.81836975 -0.5310031 -0.01860507
C 1.0198439 0.4926506 1.0854822
O 1.2854062 0.20696163 2.2257805
H -1.7492052 -0.872537 -0.53972745
H -1.483261 0.788391 0.059746984
H -1.7929758 0.5068821 -1.6720473
H 1.8083984 -0.77574766 -0.42060906
H 0.3874759 -1.4506716 0.40622437
H 0.9431694 1.5481803 0.7431877
