11

C 0.9943424 1.606438 0.06884185
O 0.26482952 0.5320559 -0.5639391
C -0.9714813 -1.5824335 -0.33483586
C -0.19881359 -0.4310109 0.15906692
O -0.5751429 -2.666559 0.24314263
H -1.9676182 -1.0695641 0.031391807
H 1.3574513 1.2949405 1.0498351
H -1.1069843 -1.5215776 -1.4410273
H 0.31933865 2.4607143 0.15986767
H 1.8249931 1.8479743 -0.5929461
H 0.059085272 -0.47097793 1.2206024
