10

O 0.060803518 -1.4486766 1.6660327
C 0.037728224 -0.47693416 0.7394351
N 0.13621594 0.8017422 0.9511293
C 0.056849703 1.3635021 -0.31070885
C -0.08911047 0.4046527 -1.2649508
N -0.10038928 -0.80051434 -0.56758535
H 0.16590117 -0.9906893 2.5125058
H 0.112355545 2.435224 -0.44727132
H -0.18572614 0.4429774 -2.339054
H -0.19462816 -1.7312844 -0.93953204
