10

O -0.11410506 -2.21897321 0.28597801
C 0.10348683 0.10700433 1.04943319
N -0.03072637 0.93871433 -0.97114256
C 0.11158257 1.27796272 0.32860876
C -0.05159332 -0.89129506 0.05778642
N -0.13280478 -0.39405985 -1.16020124
H 0.19272345 -0.02330164 2.11762683
H -0.06643236 1.54543333 -1.77260078
H 0.20614710 2.30821939 0.63895542
H -0.21827801 -2.64970476 -0.57444350
