10

O 2.00756873 1.14893386 0.44102906
C 0.96244215 0.60083088 0.20592766
C 0.43162561 -0.84886563 0.23267048
C -0.91466129 -0.24405629 -0.23553420
N -0.26387903 1.06265295 -0.20690466
H 0.92245235 -1.51488594 -0.47960180
H 0.42630897 -1.30116833 1.22607175
H -1.74129501 -0.34313431 0.47490908
H -1.24046663 -0.55350452 -1.23311390
H -0.59009576 1.99319759 -0.42545320
