10

O 2.0078497 1.1503853 0.43364754
C 0.96214277 0.6008351 0.2085614
C 0.43247247 -0.848585 0.23335919
C -0.91515255 -0.24339387 -0.2367317
N -0.2666366 1.0636512 -0.1951155
H 0.9243759 -1.5151683 -0.47802797
H 0.42321914 -1.3023655 1.226211
H -1.235593 -0.5472713 -1.2375094
H -1.744025 -0.35094577 0.46896312
H -0.58865273 1.9928584 -0.42335743
