9

N -0.60688084 -1.2348298 -0.22891328
C 0.37448394 0.7214596 0.4702737
C -0.24747269 -0.35916245 -1.292988
N 0.30492315 0.7511734 -0.9807532
C -0.2394161 -0.5975084 0.8229961
H -0.4517029 -0.66012734 -2.3154535
H 1.4145046 0.80814934 0.8059741
H -0.17262165 1.57031 0.8964444
H -0.37581766 -0.9994641 1.8224196
