9

N -0.16965497 -0.42108786 1.1035978
C 0.083133034 0.6471122 -0.90356416
C -0.69544476 -1.0856855 0.06307136
N -0.60362613 -0.48080269 -1.1290573
C 0.40681645 0.74398464 0.45452634
H 1.0636048 -0.27200946 0.862771
H 0.7427541 1.5828724 1.0510498
H 0.3255651 1.3446932 -1.6961433
H -1.1531476 -2.059077 0.1937485
