11

N -2.34908630 -0.45187872 -1.46433312
C -1.20389890 -0.43638968 -1.32944964
C 1.07463654 2.28873287 1.09300577
O 0.60420870 -0.89773335 0.15957933
C 0.12317357 -0.12950883 1.22613635
C 0.25776573 -0.41523965 -1.11454753
N 0.64583224 1.19992664 1.19068628
H -0.97209809 -0.06176657 1.21043322
H 0.62253921 0.60834081 -1.27124163
H 0.45717069 -0.62655020 2.13614266
H 0.73975648 -1.07793323 -1.83641148
