11

C -0.5192894 1.1358792 0.4791473
C -0.12728621 -0.23186854 -0.029685179
C 1.2592878 -0.7144977 0.028847018
O 0.28076014 -1.1806048 0.9417347
C -0.9903815 -0.7729353 -1.0798031
N -1.6802868 -1.165828 -1.9180363
H -1.5256963 1.1114845 0.9065954
H 0.1836674 1.4521261 1.2541403
H -0.5057344 1.8657149 -0.33518362
H 1.609937 -1.4489778 -0.69398284
H 2.0150225 -0.050492693 0.44622627
