9

O 1.27835088 0.61617597 -1.66255495
C 1.08457802 -0.06840245 -0.56668302
N 0.65808843 0.23219645 0.70525922
N -1.52185403 -0.71663349 0.73138741
C -0.76243825 0.27542938 0.88955397
N 1.14992201 -1.17176984 0.00724365
H 1.63351530 0.03185953 -2.34935847
H -1.04487605 1.27202109 1.24832537
H -2.47528623 -0.47087694 0.99682692
