9

O -0.06531923 1.2704401 1.9823772
C -0.345541 0.50577843 0.92769307
N 0.60324335 -0.37655798 0.5149859
N -1.4111903 0.3548365 0.27286103
C 0.6946677 -0.72762847 -0.77771014
N -0.3079838 -0.7773217 -1.5782993
H -0.873436 1.7317821 2.2498994
H 1.7148416 -1.0151058 -1.0583236
H -0.009282486 -0.9662233 -2.533483
