9

O 1.584271 -0.27985376 -1.5353028
C 0.6204928 -0.14811838 -0.6118263
N 0.34933826 0.9937456 -0.017648617
N -0.6674998 0.6257818 0.8036163
C -0.93549365 -0.67994606 0.65304357
N -0.13271143 -1.2132187 -0.24393587
H 1.9880911 0.5896256 -1.6599187
H -1.0974637 1.3077608 1.4060807
H -1.7090245 -1.1957772 1.2058918
