11

C -0.8043043 -0.09527386 0.5608298
C 1.5510135 0.44668353 0.21561193
C 0.42699763 0.3976205 1.2121737
O -0.64640164 1.2800498 0.8526415
C -0.44305214 -0.41207144 -0.8674643
N 0.98287237 -0.0039763465 -0.8840443
H -0.54359686 -1.4778106 -1.098362
H 0.61218005 0.3161148 2.2789087
H -1.022481 0.17188814 -1.5885448
H -1.6037543 -0.61762595 1.079071
H 1.4905267 -0.0055985795 -1.760821
