11

C -0.9886649 0.8924654 -0.11798793
C 0.05896283 -0.19597688 -0.17287697
C 0.674901 -0.7390197 1.0475242
O -0.3156218 -1.4646899 0.33777037
C 0.8380874 -0.24481364 -1.4095339
N 1.4462321 -0.24846986 -2.3934977
H -1.7174848 0.76112425 -0.92109096
H -1.511141 0.847714 0.841036
H -0.5262793 1.8778573 -0.22745696
H 1.6788547 -1.1553655 1.0085342
H 0.36215386 -0.3308255 2.0075796
