10

O 0.30327767 2.33478 0.9229983
C -1.085973 -0.32013002 -0.21696141
N -1.0310783 0.93835676 -0.3291094
C 0.11670517 1.7212088 -0.094193734
C 0.05454611 -1.2143831 0.14834435
N 1.2261 -0.7331265 0.22138423
H -2.0417588 -0.81273025 -0.4186781
H -0.1979125 -2.2693346 0.31351453
H 1.9120637 -1.4520531 0.454226
H 0.74402994 1.8074117 -1.0015246
