10

O -0.70019376 -0.5475605 2.2220113
C 1.1640888 0.29959062 -0.51854694
N 1.0328549 0.40878665 0.7981481
C -0.29929343 -0.05551241 1.16969
C 0.012279527 -0.25650713 -1.1080592
N -0.8705523 -0.4448168 -0.15011302
H 2.019441 0.707262 -1.0421597
H -0.37258437 1.1669613 1.0163742
H -0.2033236 -0.41118616 -2.158099
H -1.7827168 -0.8670176 -0.22924608
