11

O 0.22601819 1.2774684 -2.155302
C 0.004303998 0.58321875 -1.1878314
C 0.56802267 0.8738626 0.23185463
C 0.024671031 -0.22258832 1.0614789
C -0.7237797 -1.0264132 0.21058531
N -0.78941727 -0.5568316 -1.15561
H 0.089734875 -1.5558732 -0.44288328
H -1.4331849 -1.7902057 0.5220979
H 1.6614645 0.951414 0.23283808
H 0.18049334 -0.38657382 2.1214197
H 0.19167331 1.8525225 0.56135267
