11

O -0.8147383 2.1610959 -0.6990812
C -0.42130578 1.0851719 -0.30958828
C 0.34695747 0.002884578 -1.0766569
C 0.5423907 -1.0873561 -0.05716981
C -0.016407227 -0.6958089 1.0908598
N -0.58780575 0.57948804 0.96426797
H 1.284472 0.42116913 -1.4588684
H -0.23508811 -0.31011546 -1.9496685
H 1.0489246 -2.0241597 -0.23350209
H -0.075705804 -1.2140461 2.0397627
H -1.0716935 1.0816768 1.689645
