10

O -0.22669378 1.00189185 -1.58816896
C -0.06351357 0.32241656 -0.39469534
C 0.60302374 -0.98363440 -0.48938544
N 0.68368684 -1.77536571 0.50088957
N -0.83415935 1.32944105 1.80479754
C -0.54299759 0.79110367 0.74441546
H -0.04225515 1.93808727 -1.44784252
H 1.00588692 -1.17632343 -1.49152633
H 1.20187666 -2.61024727 0.23313287
H -1.78485480 1.16263011 2.12838299
