10

O 1.8367141 0.70293593 -0.37284175
C 0.32740858 -1.2029235 -0.14393336
C -0.635281 0.8485022 0.050637443
N -0.48915654 -2.1308672 -0.0718281
N -1.7383875 0.21607794 0.19907737
C 0.6133618 0.123652115 -0.122373015
H 0.8752277 -2.240404 -0.3308131
H 2.2717526 0.8972841 0.4663273
H -2.529164 0.845933 0.29599297
H -0.5324756 1.939809 0.029754275
