11

C -1.3048887 0.103768416 -0.7837637
O 0.07120008 -0.017304754 -1.0838147
C 0.8176416 -0.53140295 -0.01713863
C 1.0197046 0.49369484 1.0863628
O 1.2808335 0.20742033 2.2263298
H -1.7480199 -0.8730536 -0.54130995
H -1.4855633 0.7886131 0.05802966
H -1.7900363 0.50616777 -1.674734
H 1.8080845 -0.7752765 -0.42055655
H 0.38656503 -1.4507716 0.4071292
H 0.9444785 1.5481449 0.74346614
