11

C -0.56674004 -0.09321118 -0.999706
O -0.934943 -0.38950583 1.4984356
C -0.37198037 0.35429224 0.45873076
C 1.125408 0.21451701 0.13425587
O 0.83727545 0.038177375 -1.2595294
H -1.1707325 0.54363817 -1.655869
H 1.7730615 1.0790309 0.31688926
H -0.68967205 -1.3171333 1.3850373
H -0.9093566 -1.1362734 -1.0906719
H 1.584273 -0.68210113 0.57966703
H -0.6765933 1.388569 0.6327602
