15

N -0.473461 -2.2375753 1.295511
C -0.32017195 -0.924539 0.9018854
O -0.7998905 -0.0016303882 1.5489362
N 0.4166075 -0.7588599 -0.24222381
C 0.93284225 0.5398143 -0.67256176
C -0.1365528 1.5818313 -1.0153061
O -0.60976607 2.2998078 0.0882728
H -1.1872858 -2.346349 2.001503
H -0.46828443 -2.9537375 0.58630055
H 0.9726914 -1.5531615 -0.5238107
H 1.5294778 0.34093332 -1.5684881
H 1.5967325 0.9693139 0.08993247
H -0.9436356 1.081996 -1.5746156
H 0.31736585 2.319742 -1.6874733
H -0.82666945 1.6424142 0.7721376
