9

N 0.93178647 -0.11868547 -0.12183418
C -0.47590739 -0.40592756 -0.67329797
C -0.07896035 0.95456920 -0.25256163
C -1.22734724 -1.15455134 0.28459632
N -1.84840800 -1.81126477 1.01697736
H 1.69606734 -0.17152642 -0.78463309
H -0.34158002 1.37937170 0.71726873
H 0.15379556 1.69468750 -1.01577045
H 1.19055336 -0.36667253 0.82925486
