10

N -0.6581529 -1.2203716 1.1878425
C -0.17846118 -0.30693167 0.25671452
C -0.78159535 0.73054355 -0.37712112
O 0.140204 1.2673544 -1.2485728
C 1.2331492 0.5174035 -1.0813408
N 1.1213967 -0.42758873 -0.20970786
H -1.3210366 -0.8383936 1.8459908
H 0.1025617 -1.6839317 1.666288
H -1.7556598 1.1919018 -0.3596927
H 2.097594 0.7700141 -1.6804004
