14

C -2.3948815 -0.07579804 0.971822
N -1.3543836 0.1371164 -0.014987144
C -0.03560141 0.03773805 0.34368315
O 0.35177666 -0.073281355 1.4917479
N 0.8447206 0.103905186 -0.73381865
C 2.21728 0.003926192 -0.58958274
N 2.965811 0.11127562 -1.6132604
H -2.03871 0.29218963 1.9335266
H -2.653024 -1.1371692 1.0802374
H -3.2891529 0.48294985 0.6824768
H -1.5963289 -0.020609407 -0.9810401
H 0.5219618 0.29718408 -1.6726583
H 2.521722 -0.16911173 0.44260958
H 3.9388103 0.009684732 -1.3407563
