14

C -0.047365304 0.32529813 -0.009676974
N 1.0721611 -0.10276 0.68453956
C 1.3850389 -1.4306531 0.8912366
O -0.8457696 -0.5249385 -0.49700263
N 2.4193354 -1.7379336 1.5601759
C -2.029113 0.9183783 -1.289
N -0.35515735 1.565969 -0.21431941
H 0.2277023 2.3345294 0.0899455
H -1.5528167 0.9878259 -2.258832
H 1.7038461 0.57509923 1.0847458
H -2.4249685 1.8548656 -0.9152538
H 0.66686547 -2.1108513 0.42708692
H 2.503295 -2.7476833 1.6263473
H -2.7230532 0.0928547 -1.1799926
