11

N 0.101557724 0.71354073 -1.7205917
C -0.005943191 0.1667103 -0.43763766
C 0.8899094 -0.5052573 0.36755323
C 0.13231522 -0.85990644 1.5068127
N -1.1169763 -0.4422224 1.4333558
N -1.180806 0.18152423 0.2347308
H 1.0473711 0.63886404 -2.072151
H -0.197138 1.6792359 -1.7707688
H 1.9332598 -0.70097953 0.16527063
H 0.46415138 -1.3998922 2.384083
H -2.0677013 0.52838266 -0.090657435
