11

O 0.9681934 -1.4322913 1.4475461
C 1.0504267 -0.098273076 -0.7350771
C 0.8047403 -0.8611805 0.45012847
C 0.23443162 0.9390967 0.0056890384
C -1.0898917 0.51956505 0.19379143
N -1.3542166 -0.71451396 -0.16190632
H 0.66254205 1.8732302 0.34107798
H -1.8025867 1.178575 0.7011848
H 0.6478671 -0.49881208 -1.6670439
H -2.2396913 -1.0456746 0.20413724
H 2.1181848 0.1402786 -0.7795279
