11

O -0.8162554 2.1583025 -0.70032704
C -0.42199862 1.0845511 -0.31064454
C 0.348732 0.0012504504 -1.076721
C 0.54469293 -1.0862589 -0.055955004
C -0.015732115 -0.69488335 1.0910193
N -0.58903617 0.57830465 0.9648748
H 1.2836066 0.4231577 -1.4610564
H -0.23664232 -0.3123784 -1.9485533
H 1.052498 -2.0225465 -0.23136164
H -0.075633205 -1.2111574 2.0400639
H -1.0742316 1.081659 1.6886612
