11

N 0.36100596 -0.729597 -0.9687208
C -0.13559787 -0.5882506 0.24948205
N -0.47029757 -1.7011291 1.0183601
N 0.48841286 0.5359864 -1.4241171
C -0.31907207 0.7774172 0.59226584
C 0.10264301 1.4631159 -0.5247656
H 0.14723763 2.521103 -0.7415689
H 0.8483082 0.6813305 -2.3529088
H -0.24814259 -1.5956347 1.99769
H -0.7143871 1.1821916 1.5126835
H -0.060110494 -2.546533 0.64159995
