11

N 1.4737942 0.37079403 1.3606167
C 0.43727067 0.20168239 0.44034857
N -0.27938217 1.2332575 0.023221064
N -1.2137452 0.6850015 -0.77782416
C -1.0989318 -0.65351385 -0.8916167
C -0.02887912 -1.0217506 -0.10689299
H 2.2841902 -0.19749989 1.1557777
H 1.735069 1.344516 1.4440802
H -1.8926425 1.2871209 -1.2122748
H -1.7760912 -1.234519 -1.501648
H 0.35934755 -2.0150888 0.06621265
