10

N -0.17820111 1.3056207 0.49585575
C 0.3830232 -0.93650025 0.577887
C -0.39263386 0.7056807 -0.8146205
C 0.25684136 0.36272866 1.2527021
C -0.011980461 -0.7395023 -0.68911743
H 0.49993908 0.54026806 2.297944
H -1.4399712 0.8438322 -1.1103815
H 0.72873855 -1.8523122 1.0396361
H -0.057801228 -1.4678229 -1.4895277
H 0.21204571 1.2380073 -1.5603778
