10

N -0.96655459 0.76735732 0.67764956
C 0.39918312 -0.51603303 -0.77217406
C 1.03031581 -0.36644570 0.40231794
C 0.13503256 0.43403346 1.24907295
C -0.91350175 0.20114510 -0.66393403
H 0.74788377 -1.04879235 -1.64840599
H 2.00015462 -0.74559386 0.69744881
H -1.01591833 1.00733016 -1.40199868
H 0.35661877 0.73108866 2.27171909
H -1.77321395 -0.46408967 -0.81169575
