10

O -1.9155056 -0.93692833 0.6553886
C -0.7907609 -0.41091222 0.37382954
C 0.68581337 0.43230057 -0.70977855
C 0.5668532 0.08823337 0.8082683
N -0.67772096 -0.12868106 -0.89329183
H 0.7508892 1.499661 -0.9389081
H -1.8783602 -0.68240124 -0.70649314
H 1.459537 -0.12109009 -1.2500559
H 1.2508526 -0.6813098 1.1710371
H 0.54840255 0.94112784 1.490004
