10

O -0.5126861 1.3371905 1.5708952
C -0.096449725 -0.6329276 -1.0228714
C -0.33467478 0.53258 0.5218845
C 0.834154 -0.33708867 0.18348809
N -1.1163794 0.29815876 -0.46563905
H 1.0191845 -1.1723809 0.8627167
H 0.28064007 -0.30782855 -1.995974
H -0.4627552 -1.6608045 -1.0894837
H 1.768544 0.1840012 -0.041385993
H -1.3795774 1.7590996 1.4763695
