10

O -1.709645 -0.019087126 0.5937714
C 0.522322 1.0519172 0.35988966
C 1.7925638 0.57595223 -0.33349863
N 0.11648126 -0.9647192 -0.5382658
N 1.5384687 -0.5913536 -0.8443098
C -0.43401548 0.15273258 0.23286837
H 0.12041544 -1.8451592 -0.018544262
H -1.9932883 0.75901616 1.0929043
H -0.37158528 -1.1157073 -1.4238427
H 0.418283 1.996408 0.8790274
