11

C 0.77015233 -0.024401655 -0.027591377
C -0.5145542 -0.6577649 -0.33973834
N 1.0724529 0.5125131 1.2718563
C -0.27235323 0.6789371 -0.91665184
N -1.2819054 -1.6103324 -0.048799146
H 1.3903997 -0.23438029 1.8829705
H -2.193974 -1.480749 -0.4967873
H 1.6532344 -0.37700045 -0.5563633
H -0.039195456 0.7818475 -1.9735552
H -0.8181346 1.5226498 -0.49611032
H 0.23387736 0.88868135 1.7007699
