11

C -0.43868486 0.85914713 -0.66693644
C 0.63283035 -0.21100409 -0.38664502
N 1.62288184 0.02524354 0.62933355
C -0.77920748 -0.44779959 -0.07179163
N -1.57890122 -1.21227052 0.52564660
H -2.51220976 -0.79154539 0.56142237
H 1.21326555 0.52728542 1.40961991
H -0.46712507 1.73644701 -0.02186306
H -0.68022167 1.06342273 -1.70709473
H 1.04271650 -0.68611205 -1.27547873
H 1.94465584 -0.86281407 1.00378734
