10

C -0.9339129 0.3793793 2.366062
C -0.47554296 0.21194455 1.2668978
C 0.06634332 0.0085826125 -0.034211066
C 1.3405945 0.11952851 -0.55042005
N 1.3075961 -0.19805259 -1.8664477
N 0.088893555 -0.50011086 -2.2005796
N -0.6641069 -0.38072592 -1.1107924
H -1.3322664 0.5291944 3.3458962
H 2.254691 0.402659 -0.051654015
H -1.6522894 -0.5723991 -1.1647512
