10

C 0.13343415 -0.040403403 0.08424297
C 0.6423132 -0.6633227 1.2667019
C 1.0336549 -1.1914811 2.2703247
C -1.2029693 0.076022685 -0.34159204
N 0.05717853 0.98321766 -1.7143357
N -1.2199674 0.73471963 -1.4925679
N 0.91782945 0.5519473 -0.81932765
H 1.3941056 -1.6587776 3.1611736
H 0.3551141 1.484165 -2.5369549
H -2.110693 -0.27608734 0.12233472
