11

C 1.3311688 0.48625565 -0.5809344
O -2.2686489 -1.217509 -0.29007864
C -1.5529181 -0.2708861 -0.07590073
C -0.34936833 -0.31062585 0.8538523
O 0.5595726 0.7189843 0.57960564
H -1.7458181 0.73113036 -0.51905715
H 2.0002823 1.3388951 -0.6930491
H 1.9292253 -0.43242097 -0.48747733
H 0.70370454 0.40420708 -1.4816653
H 0.11407494 -1.3086293 0.8227014
H -0.7212754 -0.13940121 1.8720031
