11

O -1.82597784 0.27024622 0.47200135
C 0.09161171 0.78744902 2.53440465
C 0.99465497 1.02258912 0.18937255
C -0.15842772 -0.92180361 -0.70515883
N 0.76440258 0.08612593 -0.70671510
C -1.43036711 -0.75307808 -0.08020594
N 0.55067679 0.93791861 1.45641070
H 1.69047623 1.81376980 -0.06542024
H 1.37266513 0.13350625 -1.51875182
H -2.08755326 -1.63625408 -0.18947606
H 0.03783855 -1.74046904 -1.38646112
