10

O 0.020989554 0.324851 2.023755
C -0.024559407 0.118604496 0.6895563
C 0.8913144 -0.2854806 -0.25552657
C 0.14466909 -0.27925128 -1.4615734
N -1.1092839 0.09197571 -1.2799859
N -1.192216 0.3320227 0.048807584
H 0.914116 0.13667929 2.337083
H 1.9291323 -0.5429471 -0.10265179
H 0.48715538 -0.5340244 -2.4557233
H -2.0613174 0.6375702 0.45625937
