10

O 1.02907979 -1.15528941 1.25022643
C 0.45043676 0.71824435 -0.28035689
C 0.41196725 -0.73766125 0.07657368
C -0.79717314 1.04222089 -0.60792089
N -1.03093835 -1.06661594 0.00446966
N -1.67495773 -0.08622455 -0.42414496
H 0.62831121 -0.68539959 1.99315253
H 1.34382029 1.32613531 -0.31773356
H 0.86276629 -1.32749393 -0.73419619
H -1.22331236 1.97208413 -0.96006951
