10

O 1.8003229 -0.33631244 0.7762063
C -0.15367466 0.857661 -0.19537115
C -1.38424 0.35395738 -0.22331831
C 0.7684627 -0.3241183 -0.15536107
N -1.3416126 -1.0840167 -0.13341877
N -0.15878652 -1.4742793 -0.042554546
H 1.2411661 -0.4556755 -1.1390858
H 0.16085504 1.8902336 -0.25804058
H -2.3505406 0.8357585 -0.289498
H 1.4180475 -0.2632085 1.6604418
