12

N -1.523292 -1.1000708 -1.342452
C -0.61882067 -0.4531224 -0.55085665
N -0.6903928 -0.6981799 0.76747006
C 0.2203868 -0.08935905 1.5174553
C 1.1920413 0.75615954 0.99518865
C 1.1563598 0.93706197 -0.3824268
N 0.2641536 0.3496832 -1.1700593
H -1.6444513 -0.74813235 -2.2790558
H -2.3239279 -1.5053092 -0.8850579
H 0.16585109 -0.28301156 2.5868673
H 1.9286693 1.2446375 1.6207926
H 1.8734226 1.5896431 -0.87786543
