11

N 0.56487375 -1.4108478 -1.3638109
C 0.17611583 -0.4390357 -0.45038813
C -1.0220894 0.10476016 -0.1085385
C -0.71331894 1.1319991 0.85382557
C 0.62672263 1.1181525 1.0134479
O 1.1879245 0.15444891 0.21578622
H 1.431989 -1.8611721 -1.1042334
H -0.1607625 -2.093329 -1.5394877
H -1.9938033 -0.1721767 -0.48588273
H -1.416055 1.7824539 1.353423
H 1.3184035 1.684747 1.6158586
