12

C -1.1223311 -1.014604 -1.7004886
N -0.99757177 -0.5856158 -0.32347852
C 0.05755414 0.021766776 0.010135947
N 0.24504186 0.46859524 1.3121547
C 1.3536673 1.1494825 1.7481059
O 1.5034815 1.5450628 2.8790526
H -2.0014596 -0.538721 -2.1463785
H -0.24516413 -0.78492314 -2.322909
H -1.2967172 -2.0952485 -1.7259197
H 0.89455175 0.24891722 -0.66212875
H -0.4932341 0.28635645 1.9830546
H 2.1021814 1.2989317 0.9487994
