10

N -0.8734211 -0.23655981 1.7243811
C -0.5761333 1.0260538 0.009471976
N 1.0189837 -0.44340426 -1.2657187
N 0.09749633 -0.8987663 0.87810004
N -1.2682785 0.86648977 1.1372834
C 0.22936867 -0.09983183 -0.18958616
H 1.37493 0.33343107 -1.8016236
H -1.0380468 -1.3203884 1.1679431
H 1.7210011 -1.135769 -1.0525187
H -0.68590015 1.908745 -0.60773253
