10

N 0.974001 1.420744 0.5580321
C 0.2594136 0.31902355 0.100273974
N 0.24483143 -0.025302522 -1.1825335
N -0.4722723 -1.1413822 -1.1871787
N -0.93725705 -1.5507123 -0.030221332
C -0.48475212 -0.63682145 0.82455605
H 0.4997992 1.9475796 1.2770965
H 1.2590575 2.021077 -0.20467965
H -0.64625585 -1.6514645 -2.0374532
H -0.6965654 -0.7027407 1.8821081
