11

O -1.41339693 1.98388008 0.36579769
C -0.60157307 0.94013335 0.19740055
N 0.60965315 0.85490156 0.56414402
C -0.19383743 -1.09899535 -0.54228119
C 1.04065320 -0.47848295 0.15703462
O -1.20344094 -0.08099044 -0.43221152
H -0.56662325 -2.00187949 -0.05330915
H 1.35022231 -1.05755681 1.03389739
H -0.03388810 -1.30401061 -1.60503575
H -0.89032258 2.65353305 0.82812914
H 1.90255402 -0.41053250 -0.51356568
