11

O -2.0158212 0.98692006 1.3772774
C -1.0817083 0.61364704 0.72376955
N -0.97322136 -0.5496486 -0.012877634
C 0.4085287 -0.80761707 -0.357778
C 0.9411595 0.63102186 -0.32415536
O 0.079034545 1.312188 0.58689255
H -1.6065063 -1.2939281 0.23301993
H 0.9086953 -1.4443977 0.38287556
H 0.5092324 -1.2653158 -1.343722
H 0.8628281 1.109613 -1.3050704
H 1.967779 0.7075172 0.03976851
