13

N -0.6619301 -1.7240472 0.065548316
C 0.90590686 1.6403221 0.45719534
C -0.27675238 -0.50837487 0.7468801
N 1.1815892 2.6395276 0.966763
C 0.51020014 0.38545895 -0.22186375
N -0.26259428 0.60688525 -1.4308027
H -1.1890478 0.02726526 1.0417724
H 0.32409582 -0.65557235 1.6592523
H 0.28206718 1.1298873 -2.106137
H 1.4322747 -0.1384196 -0.5039167
H -1.0856063 1.162075 -1.2155143
H 0.15165178 -2.3110034 -0.091793
H -1.3118547 -2.2540042 0.63261616
