13

N -0.3807085 -0.9851758 -1.1423233
C 0.76757526 -1.6546482 0.90614074
C -0.07901288 -0.6509703 0.3769788
N -0.64601415 1.6268913 -0.18028153
C 0.33593112 0.7876318 0.50506526
N 1.4423846 -2.4875298 1.355165
H -1.1263741 -1.2379937 -0.30691156
H -0.31733614 2.5861769 -0.2468203
H 0.4704911 1.0135539 1.5730919
H 0.33501193 -1.5233068 -1.6288835
H -0.5919848 -0.078513555 -1.563421
H 1.3004888 0.97170776 -0.0011385252
H -1.5104522 1.6321764 0.35333785
