11

N 0.42903952 0.98272692 2.08327795
C 0.04200615 -0.70096226 0.09796051
C -0.97535574 0.48345292 -0.01885220
C 0.08295871 0.47933558 0.98145701
C 0.38625835 -0.30083189 -1.33441193
O -0.50658528 0.82899805 -1.31479989
H -0.08173762 -1.71947205 0.45028094
H -2.04027908 0.54488077 0.17735973
H 1.19751533 0.44902200 2.49344284
H 0.04556910 -1.03899218 -2.06963367
H 1.42061035 -0.00815770 -1.54608087
