11

C 0.5966875 0.73225313 2.2421544
C 0.3048401 0.16863249 0.9277031
C 0.073633276 -0.31265956 -0.1523807
C -0.14564943 -0.9685907 -1.4421151
O 0.32896155 -2.0528333 -1.7124125
N -0.9381897 -0.26344255 -2.2985275
H 0.45750597 -0.022329723 3.0217743
H -0.061455086 1.5787519 2.4632695
H 1.631641 1.0806481 2.2856648
H -1.0381575 -0.6251679 -3.2341967
H -1.2098176 0.68473834 -2.1009336
