11

N 0.36817133 0.8618483 -0.8540443
C -0.9085494 0.5212361 -0.508817
O 1.710047 0.49945876 1.1814373
C 0.16819438 -1.2276478 0.12958916
C 0.72451776 0.16473544 0.5555068
O -1.0848416 -0.80042946 -0.4257333
H -1.8047712 1.1172676 -0.68070626
H -0.50216424 0.5732353 1.0567877
H 0.5316838 1.8587363 -0.7356008
H 0.8279831 -1.6239867 -0.64516175
H -0.0302708 -1.9444536 0.9267427
