11

N 0.84205190 0.31430422 0.62391204
C 0.77956060 -0.81900714 -0.13485381
O 1.58385789 -1.72233517 -0.17210569
C -0.53139714 -0.69299325 -0.90396242
C -0.37978646 1.08729683 0.54329612
O -1.01851992 0.60335246 -0.61941348
H -0.37746329 -0.80416301 -1.98048180
H -1.22623159 -1.47435382 -0.56417718
H -0.18592845 2.15663201 0.41639464
H 1.52408820 0.41820356 1.35821422
H -1.01023181 0.93306367 1.43317741
