12

O -0.53448032 1.96316669 -1.08683321
C -0.00973909 0.76998349 -1.58512392
C 0.17064247 -0.26525799 -0.50496283
C 0.04302434 -0.91634716 1.73699446
N -0.13000350 0.05293176 0.67998863
H -0.66865316 0.34890635 -2.36080410
H -0.63291209 1.81941302 -0.12949539
H 0.96790924 0.94298009 -2.06316792
H 0.71332637 -0.49709859 2.49387745
H 0.55870695 -1.25124531 -0.79410722
H -0.92462377 -1.08665883 2.22121967
H 0.44680255 -1.88077367 1.39241435
