11

C -0.92043063 0.67731155 1.22242841
N -1.14237676 -0.42290264 0.27641628
C -0.34915035 -0.86045438 -0.67757856
O 0.76913066 -0.04318435 -0.62177311
C 1.80918458 -0.37235034 -1.44680665
O 1.90481191 -1.34378560 -2.12900078
H -0.02933870 0.48970318 1.82665608
H -1.79349516 0.74818323 1.87520279
H -0.79340160 1.61999501 0.68490232
H 2.56270859 0.42673891 -1.36129558
H -2.01764257 -0.91925476 0.35084907
