11

C -0.7732312 0.87724674 1.5448382
N 0.5842517 0.5156834 1.1784575
C 0.83525956 -0.055068165 0.095711015
O -0.14374971 -0.38594526 -0.83917075
C 0.2531215 -1.0241592 -1.9662383
O 1.3793399 -1.3326879 -2.238997
H -0.78887093 1.9519223 1.752562
H -1.0185317 0.36296967 2.4781578
H -1.5371379 0.64556277 0.79363745
H 1.8382703 -0.34050995 -0.20574006
H -0.62872154 -1.2150146 -2.5932176
