11

C 1.5945657 -0.8872128 -1.4748751
N -1.0121471 -0.31486517 0.6608294
C -0.8051344 1.10656 0.96309835
O 0.6602969 -0.27802846 -0.68318135
C -0.3236951 -1.0933133 -0.14590363
O 1.7207026 -2.0556505 -1.6673919
H -0.90073943 1.7054849 0.054323666
H -1.5661086 1.4173591 1.6826128
H 2.2294118 -0.09544051 -1.9035023
H -1.7843926 -0.77181715 1.1221619
H 0.1872398 1.2669243 1.3918285
