10

C -0.50537646 -0.03285355 0.18473462
C -0.40777892 -0.63317176 -1.14538406
O -0.91707745 0.68044562 -0.97156253
C 0.70237597 0.49963772 0.91250921
H 0.56579346 -0.69065280 -1.63212679
H -1.13371339 -1.38089435 -1.46215343
H 0.44206641 1.38381108 1.50309873
H -1.33616256 -0.35255410 0.81607940
H 1.48393908 0.78238757 0.20035650
H 1.10593390 -0.25615531 1.59444837
