11

N 0.29291646 0.47091280 0.97387745
C 0.92401058 0.11468466 -0.27887205
O -1.37812660 -0.31260942 -0.26065099
C -0.17352790 -0.77958887 -0.86744484
C -1.08277197 0.39941145 0.85890400
O -1.91109327 0.85854654 1.59458477
H 1.86137908 -0.42589478 -0.13123059
H -0.02776200 -1.82893794 -0.59316253
H -0.27140330 -0.69484831 -1.95083445
H 1.11488753 0.99242648 -0.90932891
H 0.65149146 1.20589752 1.56415807
