11

N 0.34481879 -1.17032705 0.49968671
C 0.19531729 0.15610965 -0.02920790
C 0.87142568 1.39092578 0.18104819
O -0.41038749 -0.38504410 -1.23021728
C -0.10863576 -1.63433056 -0.75758833
O -0.20079921 -2.69459911 -1.27760143
N -0.60221811 1.17907984 0.66107060
H 1.23827072 -1.47555513 0.85671929
H -1.41126293 1.49337382 0.13129589
H -0.75250017 1.09157314 1.65848576
H 0.83597120 2.04879381 -0.69369165
