9

O 0.042113483 0.9434309 1.7249024
C 1.0160184 -0.010135787 0.9611107
C -0.43305808 -0.23009256 -1.0673088
C -1.1763589 -0.8589756 -1.7775315
C 0.4340983 0.49962413 -0.2473827
N 1.8672965 -0.7815867 1.3105879
H -1.8343891 -1.4187726 -2.4058907
H 0.7360106 1.4882417 -0.5873528
H -0.65173113 0.36826658 2.0888653
