11

N 0.45434344 -0.6377877 1.6628343
C -0.26412028 -1.0123785 -0.73903227
C 0.13250533 -0.1704486 0.37689272
N -0.7971606 1.2208709 -1.1377331
N -0.75881433 -0.054004785 -1.5817485
C -0.26785725 1.1870557 0.05335159
H 0.50736684 -1.6489278 1.6668764
H -1.1037393 -0.22719517 -2.5117552
H 0.9849299 -0.50863135 -0.49628755
H 1.2949964 -0.22970088 2.0489483
H -0.18245009 2.0811481 0.65765345
