11

N 1.76560529 0.38896075 0.02568537
C -0.49821624 -0.18951449 0.11619020
C 0.47813095 0.72951766 -0.55576368
N 1.44724678 -0.53623159 0.85748133
N -1.84283465 -0.12019412 -0.12181498
C 0.14068795 -1.00608282 1.04440469
H -2.15292946 0.14058135 -1.04642756
H 0.53828351 0.60034085 -1.64221343
H 0.26764328 1.78875291 -0.36205282
H 2.22191454 -0.92032847 1.38696556
H -2.36553219 -0.87580201 0.29754514
