9

N -1.0960189 0.77447814 0.43813235
C 0.52855605 -0.8024602 0.3313214
C -0.558353 -0.26502597 1.0560664
C 0.6183578 -0.007921354 -0.7883608
N -0.36794695 0.9130524 -0.6768812
H -0.5980887 1.6540241 -1.3178004
H -0.96660614 -0.5973753 2.0011718
H 1.1517478 -1.644263 0.5915245
H 1.2883519 -0.02450885 -1.635174
