9

O 2.5029535 -0.30702728 -0.049153987
C 1.4275824 0.21998733 -0.1321389
C 0.20983736 -0.23390514 0.6639375
C -1.0246869 -0.095423065 -0.107597485
C -2.0110602 0.036715947 -0.77888113
H 1.2541 1.0979189 -0.78696233
H 0.15923281 0.39657566 1.560985
H 0.37465867 -1.262114 1.0001338
H -2.8926175 0.14727163 -1.3703225
