9

O 1.72467374 1.15973183 -0.79154930
C 1.72716755 0.06977408 -0.26624104
C 0.52577601 -0.63053614 0.24031303
C -0.67743152 -0.10901892 0.14662431
C -1.87440084 0.39159239 0.05992034
H 2.67261048 -0.49599408 -0.12850986
H -2.27448205 1.01720363 0.85367957
H 0.67030987 -1.60671378 0.69780442
H -2.49422310 0.20396097 -0.81204150
