9

O -1.7468063 -0.6160768 -0.42662364
C 0.19041295 0.3362165 1.1703336
C -0.5584249 -0.69600713 -0.27739134
C 0.51698345 0.43865508 -1.2919732
C 0.5723214 0.77632 -0.08335199
H 0.106390506 -1.5583093 -0.21664736
H 0.936334 -0.12009753 1.8153292
H -0.67707783 0.7869141 1.6442579
H 0.6598666 0.65238535 -2.333933
