9

N -0.88780564 -0.5788959 -1.2237163
C 0.23293732 -0.14886771 -0.5550084
C -0.050290167 0.37014815 0.7874483
N 0.95874023 0.8067983 1.4854976
N 1.8378797 1.1791261 2.085873
O 1.3461211 -0.15959685 -1.0446945
H -0.70487505 -1.0916739 -2.0741954
H -1.7068664 -0.84565705 -0.7023307
H -1.025841 0.46861875 1.2411267
