9

N 0.9552298 -1.4147959 0.020232774
C -0.9264279 0.20601018 0.061967377
C 0.44607463 -0.20908824 -0.016538413
N -1.3707622 2.600335 -0.08349867
N -1.165408 1.4955678 -0.017105054
O 1.4314876 0.6111895 -0.14835858
H 1.9727558 -0.56545734 -0.10428787
H -1.7789694 -0.44847107 0.16631365
H 0.43601963 -2.2752895 0.12127481
