9

N -1.0017143 -0.25534475 1.4515988
C 0.29706386 0.21203373 -0.5003806
C -0.1589759 -0.6832968 0.5559553
N 1.107878 -0.050386403 -1.439669
N -1.7304817 0.10517907 2.2352583
O -0.2525329 1.4443713 -0.40313256
H 0.121532135 1.9424825 -1.1451758
H 0.16886216 -1.7068614 0.64409655
H 1.4483689 -1.0081772 -1.3985512
