11

C -0.20027262 0.14420641 -0.15382743
C 1.18982921 0.44719867 -0.49168317
O 0.34073846 -0.31304960 -1.36655198
C -0.57775136 -0.89720671 0.86270708
O -1.18827334 1.09967778 -0.26373606
H 1.44430651 1.44403835 -0.85577439
H -0.98861980 1.65054786 -1.03236033
H -1.49416109 -1.40418338 0.54853313
H -0.75749100 -0.42519875 1.83232158
H 2.00955768 -0.11016368 -0.04122916
H 0.22213736 -1.63586704 0.96160106
