11

N -0.632723 -0.71393734 -1.939686
C -0.3243766 -0.278096 -0.79952824
C 0.7064207 -0.87491876 0.13370189
O 0.44007805 -0.24463329 1.3718472
C -0.13010761 0.9902641 1.048186
O -0.84540343 0.81115365 -0.17094307
H -1.3326608 -0.1244842 -2.3828366
H 0.5890164 -1.9545866 0.23849687
H 1.7192129 -0.65012497 -0.22850572
H -0.82586074 1.2783115 1.8367627
H 0.6364039 1.761052 0.89250505
