11

O 1.6786714 0.6628786 -0.51564604
C 0.7595483 -0.048595745 0.25070962
C -0.336187 0.6915841 1.0451809
O -1.3500735 -0.14628726 0.41607252
C -0.42457783 -0.6848997 -0.44267783
N -0.5581823 -1.3744707 -1.4810328
H 1.2632525 0.90239567 -1.3533403
H 1.3166012 -0.7547125 0.8723412
H -0.34723228 0.5706413 2.129326
H -0.459919 1.7395453 0.7567658
H -1.5419016 -1.5580789 -1.6776992
