11

O -1.6381526 1.5802003 1.1549106
C 1.2123432 -0.5251433 -0.6091071
C -0.95405024 -0.5206457 0.24946743
O -0.04798786 -0.95732576 -0.7548876
C -1.1394911 0.985211 0.23712981
N 1.5588533 0.24824978 0.327207
H 1.8369608 -0.939463 -1.4044955
H 2.5451858 0.47762626 0.25915256
H -0.6316092 -0.830537 1.2469426
H -1.906291 -0.999222 0.0013892112
H -0.83576167 1.4810494 -0.70770913
