11

O -1.5309417 -0.1093854 0.09413941
C -0.69431406 0.7946799 0.40629804
C -0.70942426 -1.306653 -0.43089792
O 0.41839224 -1.2753012 0.2410525
C 0.7438704 0.70290136 0.20875496
N 1.5331067 1.3027973 -0.5756907
H 0.89332473 0.48093966 1.3242358
H -1.4422711 -2.107944 -0.25115916
H -0.5948897 -1.1221865 -1.5095041
H -1.1151228 1.627686 0.9752778
H 2.4982693 1.0124658 -0.4825064
