11

O -2.29677 -0.6234885 -0.4283665
C -1.1549155 -0.3758091 -0.16116124
C 0.11382429 -1.2134342 0.044033397
N 0.75416607 -0.050117847 0.7307246
C 0.8591205 0.9787764 -0.28391588
C -0.44110563 0.8132742 0.41348907
H -0.060077228 -2.0409818 0.73737293
H 0.6554993 -1.572583 -0.8360149
H 0.96453464 0.69591475 -1.329782
H 1.4550021 1.8348973 0.02085331
H -0.8492789 1.553552 1.0927672
