11

O 0.20566396 -0.5274331 1.116198
C -0.34701774 -1.7245165 0.8489179
C 0.05421715 0.18662636 -0.04524831
N -0.82678974 -1.8490322 -0.33725268
C 0.57151365 1.5777792 -0.07620251
C -0.5735152 -0.6167035 -0.9297806
H 0.38208252 2.0089 -1.0623002
H 0.0792766 2.201225 0.67538446
H -0.33151644 -2.455039 1.6476201
H -0.86302733 -0.40545192 -1.9491228
H 1.6491127 1.6036458 0.11178685
