9

O 0.8138855 -1.6763676 -0.7644772
C 0.26899293 -0.5642174 -0.24756292
N -0.3096487 -0.51106083 0.9429236
N -0.6893323 0.7590163 1.0235692
N -0.40859446 1.5278419 -0.0071948986
C 0.21374032 0.7051921 -0.8503643
H 0.699303 -2.390305 -0.12267022
H -1.1695763 1.1143254 1.8353636
H 0.5812299 1.0355754 -1.809587
