9

O -1.9273058 -0.6426747 -0.3272491
C -0.631504 -0.30541044 -0.2028667
N 1.2474686 0.53701407 0.33836406
N 1.4868361 -0.3514247 -0.6144352
N 0.34054714 -0.87109745 -0.9509537
C -0.075659536 0.6166637 0.6484508
H -1.9773527 -1.3152661 -1.0210125
H -0.47969598 1.2786021 1.3954463
H 2.0166662 1.0535938 0.734256
