10

O 0.28827534 0.81398407 -1.35163280
C -0.27526006 -0.36216478 0.63766731
C -0.88020784 0.36402064 -0.53370409
C 1.47268084 0.50275338 -0.95406212
O 2.10564698 -0.76076630 1.04054431
C 1.23656021 -0.28877475 0.36206455
H -1.42442560 1.27638074 -0.28982007
H -1.47331312 -0.24737528 -1.21373769
H -0.47909063 0.11368547 1.59983854
H -0.57086596 -1.41174292 0.70284192
