11

N 0.105242155 0.71389425 -1.7178751
C -0.0043375087 0.16814335 -0.43619898
C 0.88955307 -0.50504297 0.36839795
C 0.1292113 -0.859653 1.5063667
N -1.1189405 -0.44225797 1.4308308
N -1.1816785 0.18317164 0.23409855
H 1.0494258 0.6337888 -2.0727026
H -0.19297037 1.6793559 -1.7729524
H 1.9314269 -0.7029221 0.16713451
H 0.4598832 -1.3998744 2.3837879
H -2.0668156 0.5313967 -0.090886794
