11

N 0.19032152 -1.7210666 -1.8663064
C 0.002662254 -0.8591078 0.47811252
C 0.11938804 -1.6197978 -0.62741286
C -0.08806891 0.541367 0.054981224
N -0.25660303 1.4645171 1.0789118
N -0.049316213 0.802398 -1.2022492
H -0.12731273 1.7934064 -1.4081639
H 0.05892137 1.17626 1.9917241
H -0.049765974 -1.2202508 1.4926765
H -0.011612353 2.4176779 0.8513599
H 0.21138604 -2.7754033 -0.8436335
