11

O 1.253775 -0.6548925 -2.106404
C 0.6234427 -0.34637788 -1.1164718
N 1.1412702 0.03459689 0.099383704
C 0.12898009 0.3372721 1.082939
C -1.1390371 0.0914095 0.30617306
C -0.8600049 -0.29424796 -0.9369896
H 2.1328588 0.0856368 0.26052314
H 0.18896943 1.3763925 1.433807
H 0.1969519 -0.31496558 1.9626081
H -2.119665 0.22757784 0.74881494
H -1.5475416 -0.5424017 -1.7343838
