11

O -1.6450828 -0.8609449 0.13601333
C 0.5594003 1.0677521 0.12544942
N 0.4914065 -1.2003156 -0.07352541
C 0.6326231 0.000711856 -0.85419536
C -0.5179308 -0.6984537 0.7434875
C -0.14932469 0.61654973 1.2050123
H 1.3434886 0.020579468 -1.6795864
H 0.87789345 2.0867703 -0.06158607
H -0.6291991 1.1875103 1.9868158
H 0.11721236 -1.9719874 -0.61364305
H -1.0804868 -0.24817206 -0.91424227
