11

O -1.4500703 -0.06211387 -1.6865377
C -0.5326542 0.015086335 -0.6872681
N -0.7520292 -0.748646 0.41667426
C 0.27530423 -0.54284096 1.320481
C 1.1381706 0.35843065 0.76691455
C 0.62999237 0.72508025 -0.52376014
H 2.045924 0.7325805 1.2170858
H 0.28893593 -1.0597562 2.2675838
H -1.1659644 0.5235297 -2.3964393
H 1.0673885 1.4175662 -1.2291677
H -1.5449973 -1.3589168 0.53443354
