10

N 0.8256461 -1.5069056 -0.45510024
C -0.20243028 -0.6480048 -0.36234728
O -1.3335544 -0.8172089 -0.7807373
C 0.20181213 0.6474123 0.36364803
O 1.3317481 0.8144024 0.7849343
N -0.8257564 1.5089914 0.45274383
H 1.7112799 -1.2355665 -0.05602861
H 0.7039273 -2.3983014 -0.9044533
H -0.7004972 2.400789 0.90045226
H -1.7121753 1.2343923 0.05688843
