11

O 0.96397429 -1.42434367 -1.62814957
C 0.34630692 -0.69134581 -0.88619158
N 0.87941248 -0.18281481 0.26018878
C 0.24837120 0.66377453 1.24466799
C -1.94256954 0.44989309 -0.57822662
C -1.06778127 -0.29511945 -1.20052482
H 0.81178914 1.59319782 1.37760291
H 0.15867304 0.14988407 2.20695108
H 1.82587551 -0.49493209 0.42070170
H -0.76536634 0.94426069 0.91668048
H -1.45868549 -0.71245431 -2.13370080
