11

C -1.71888212 -0.60149786 -0.69490337
C -0.76301452 0.35961552 -1.14686401
O 0.83913283 -0.51587055 -1.10981675
C 0.37568362 0.56842425 -0.22325946
C 0.42400821 0.10851712 1.20967128
N -2.60204415 -1.30470729 -0.43152211
H -0.16127475 0.80021288 1.82432750
H 1.21685607 -0.11537559 -1.90961894
H -0.00257174 -0.89225422 1.30357720
H 0.93711633 1.48881971 -0.39812919
H 1.45499036 0.10411631 1.57653774
