11

C 0.60078984 1.3845545 0.86978227
C 0.0013193918 -0.9577279 0.011259262
O -1.2242165 -0.14523067 1.0438367
C -0.025366383 -0.38043877 -1.3650398
C 0.20447473 0.0024529456 1.1319644
N 0.96038073 2.4611418 0.6548377
H 0.9708568 -0.59928936 -1.7741281
H -0.7532497 -0.8992469 -1.9932357
H -1.1861079 -1.2053249 0.7720255
H 0.63264006 -0.36416873 2.0676048
H -0.18152101 0.7032782 -1.4189075
