10

C 0.38419834 2.0537934 1.5000597
C 0.18203221 1.0915669 0.8050678
C -0.058135904 -0.04372186 -0.020148428
C -1.2047927 -0.7224209 -0.3718134
N -0.87021416 -1.7425786 -1.1974115
N 0.41496938 -1.7388505 -1.3805224
N 0.9148162 -0.72563004 -0.68009996
H 0.5559834 2.9096217 2.1189988
H -2.2265546 -0.5315667 -0.08121572
H 1.9076979 -0.5502135 -0.6929147
