9

N -0.9014381 0.053130582 -0.7783407
C -0.22780137 1.1754541 -0.47867617
C -0.15816753 -0.94883007 -0.031548146
N 0.8665197 1.0228064 0.27611428
C 0.915917 -0.28395656 0.5673466
H -0.57404983 2.1437895 -0.819682
H 1.6983384 -0.70991755 1.1838099
H -0.32927486 -1.9999795 -0.22410634
H -1.2900435 -0.45249704 0.30508262
