9

N -0.11838946 -0.84758097 0.45150098
C 0.35809645 0.37830165 0.8590853
C 0.27523685 1.1773285 -0.24630383
N -0.23601241 0.47991815 -1.3130709
C -0.46118453 -0.72833544 -0.86121136
H -0.20308301 -1.6754692 1.0166808
H 0.7006246 0.55146194 1.8686025
H 0.55323803 2.2181365 -0.344193
H -0.86852646 -1.5537612 -1.4310908
