10

N -1.4760966 1.0781693 -0.58574766
C -0.77611 0.24511042 0.20100285
C 0.13562667 -0.8673854 0.2685912
N -0.5852582 -0.11908988 1.3925099
C 1.5962597 -0.5948898 0.12962641
O 2.0850117 0.5023665 0.25516132
H -1.0909802 1.259988 -1.4988514
H -0.19348902 -1.8882774 0.076183245
H 2.21745 -1.4837778 -0.10641626
H -1.912414 1.8677857 -0.13205963
