12

C -0.35043937 -1.1050533 0.9802457
C -0.2599605 -0.62740725 -0.46726966
N -0.26450607 0.8214927 -0.5840254
C 0.87718946 1.5513866 -0.49559835
O 1.9928116 1.0800345 -0.4087471
H -0.3430435 -2.198294 1.0244765
H -1.2720894 -0.7509602 1.4561325
H 0.5048953 -0.72789335 1.5494806
H -1.0947887 -1.0178572 -1.0579702
H 0.6693385 -0.9802391 -0.92460763
H -1.1447937 1.3142811 -0.5399558
H 0.68538606 2.6405096 -0.53216153
