12

C -0.872585 0.5555982 -1.112484
C -0.59313744 -0.56024075 -0.108535744
N 0.22568044 -0.12279738 1.0116982
C 1.5799197 -0.11846287 0.94337124
O 2.2268007 -0.5392099 0.004014581
H -1.5258967 -0.965266 0.29741576
H 0.07197277 0.9326025 -1.5176681
H -0.2107928 0.32695648 1.8022816
H -1.4096797 1.3862159 -0.6401851
H 2.0436149 0.29993978 1.8579532
H -0.053545065 -1.3773823 -0.59697485
H -1.4823514 0.18204619 -1.9408869
