12

C 0.3739127 -0.38630626 -0.7845099
C 1.026873 -1.107957 0.34842613
N -0.3487135 1.5242635 -0.019774588
C -1.4331552 0.90281934 0.31128332
O -1.5236332 -0.32552305 0.04772056
H 0.36845177 -1.8670834 0.771705
H 1.9336151 -1.595836 -0.042236406
H 1.3315202 -0.40867016 1.1303988
H -2.2646077 1.4086405 0.8179385
H -0.20242657 -0.9871441 -1.4758308
H -0.27336276 2.5155244 0.18727048
H 1.0115261 0.32727203 -1.292391
