12

C 1.16708927 -0.11615196 1.42286335
C -0.27243814 -0.58717633 -0.50839277
N -0.03886254 -0.48412370 0.92393614
C -0.66853353 0.74346130 -1.14369707
O 2.16237589 0.08037015 0.75304424
H -1.04790655 -1.34374522 -0.66693038
H -0.81891890 -0.53968845 1.56130116
H 1.15426976 -0.02942221 2.52687775
H -0.82555649 0.62268486 -2.21997044
H 0.65577274 -0.95481062 -0.95641352
H -1.59524507 1.13033776 -0.70438506
H 0.12795324 1.47826452 -0.98823378
