11

O -1.89119106 -0.15502381 -0.35206138
C 1.20537292 -0.09178162 0.90719729
C -0.51715651 -0.26126451 -0.55836740
C 0.30298114 1.00070053 -0.72039803
C 1.38102246 1.11694104 0.10840003
N 0.18625567 -0.86137107 0.58687214
H -0.08465004 -1.73573049 1.01158423
H -0.38393889 -0.93196044 -1.41610096
H -2.04659539 0.62479986 0.20001384
H 0.01737861 1.68978115 -1.51249785
H 1.83052109 -0.39509039 1.74535829
