11

O 1.8975886 -0.17695136 -1.0906719
C -1.2154608 0.7838924 0.30995682
C 0.6323602 -0.05029488 -0.5892606
C -0.28262967 1.0525442 -0.7624255
C -0.78815484 -0.2609582 1.0987724
N 0.36406258 -0.76635087 0.5910733
H -0.2032848 -0.317082 -1.39825
H -2.1181521 1.3539033 0.491188
H -1.2429606 -0.71280134 1.9721586
H 2.0764441 0.66062856 -1.5410829
H 0.88018763 -1.56653 0.9185415
