11

O -1.0285236 0.63513565 -1.5044352
C -0.3909052 -0.2640048 -0.651904
C 1.6260512 -0.125531 0.71184987
C 0.38199025 0.012670873 1.462285
C 1.1192085 -0.23815237 -0.55029833
N -0.7321959 -0.0471832 0.76336956
H -0.7512505 -1.2622347 -0.929348
H -0.53674793 1.468402 -1.4746628
H 0.30308256 0.17575525 2.5358293
H 1.6889154 -0.36823884 -1.4680862
H -1.6796248 0.013381069 1.1054004
