13

C 0.6972658 -1.0611678 0.12503459
C -0.51058084 -0.13916543 0.069334134
N -1.6703202 -0.5254947 -0.4990848
O -0.6713992 -0.17083296 -1.6851453
C -0.4472727 1.0715355 0.95890087
O 1.9075428 -0.40783593 -0.17476328
H 0.56300545 1.2855737 1.3134634
H 0.49718946 -1.9331214 -0.5078521
H -1.1024427 0.8499204 1.8100178
H -0.87099975 1.9419789 0.44945914
H 1.8822759 -0.20941494 -1.1195954
H -1.0559005 0.6940513 -1.9055921
H 0.78163654 -1.3960266 1.165823
