13

C 0.5237012 0.84657395 -1.0022736
C -0.23261864 -0.038917355 1.2972174
N 0.6118863 -1.6435858 -0.39230004
O -1.36641 0.79747915 1.388212
C 0.109933436 -0.32466567 -0.15006821
O -0.7594217 -1.238581 -0.7635887
H 0.59181094 0.49120665 1.7820225
H 0.6142464 0.5438687 -2.0508692
H 1.1110108 -1.6419252 -1.2873257
H 1.4871814 1.2395127 -0.65901655
H -2.092423 0.33135816 0.9541519
H -0.22412165 1.6393472 -0.9277248
H -0.37477535 -1.0016716 1.8115625
