13

C 0.05185169 0.24676870 1.29414671
C 0.16556100 -0.31825913 -0.10636869
N 0.96336181 -1.50308602 -0.20577874
O -1.23117281 0.79464850 1.51093654
C 0.04998645 0.65422910 -1.25099492
O -0.51179649 -1.53438472 -0.27856729
H 0.77066714 1.05915990 1.43226429
H -1.86580684 0.07806128 1.38242882
H 0.29531037 -0.55547991 2.00743501
H 0.90998704 1.33312228 -1.25583103
H -0.86201143 1.24553644 -1.14190113
H 0.01180288 0.11891240 -2.20564653
H 1.25225947 -1.61922895 -1.18212290
