12

O 1.5031573 0.79228055 0.314111
C 0.7544069 0.20744534 -1.1371596
C -1.4077473 0.30499595 0.23555268
O -1.6262382 0.24611561 1.4274914
C -0.35751757 -0.55730265 -0.4361031
O 0.23084173 -1.3818786 0.569561
H 1.3341035 -0.05898403 0.813276
H -1.941229 1.0195183 -0.4202457
H 2.4216967 0.7728707 0.020798448
H 0.3246393 1.162497 -1.4851391
H -0.3897769 -1.3513048 1.3187668
H -0.8463364 -1.1562535 -1.2209097
