12

O -0.607542 -0.52757114 -1.3231293
C 0.45485637 0.061492737 -0.6089414
C 0.8972453 -0.84354496 0.51555127
O -1.1051097 1.8607087 -0.34023765
C 0.005520944 1.4340856 -0.12118598
O -0.6596453 -1.1540961 1.3183603
H -1.2461736 -1.0798128 0.537439
H -1.2320783 0.19158667 -1.5184639
H 1.3911088 -0.25594947 1.3010625
H 1.3496959 0.21028145 -1.2397847
H 0.0015471574 -1.9057491 1.0221101
H 0.7505745 2.008568 0.45721972
