12

C 2.0308824 0.87165695 -0.27865857
C 0.25057003 -0.6419853 -0.32349125
N -2.4111433 -1.0207806 -0.114201754
N -0.44804978 0.19263986 0.33810544
C -1.7811837 -0.16895178 0.5914924
O 1.5120676 -0.4129389 -0.6516778
H -3.361237 -1.1236031 0.24338843
H 1.4584366 1.6683903 -0.7608802
H 3.0648322 0.8726954 -0.6263698
H 1.981001 0.9995748 0.80424273
H -2.1950417 0.3811828 1.4434161
H -0.10113399 -1.6178803 -0.66536593
