12

C 2.10589268 -0.49346157 0.53257046
C -1.65410239 0.90275541 -0.00118264
N -0.35944368 0.41120426 0.23213215
N -2.32644514 0.60945883 -1.04156623
C -0.03806657 -0.65644468 -0.38367744
O 1.15878474 -1.21022724 -0.27224764
H 1.73333661 -0.39074788 1.55344177
H 3.01516357 -1.09551072 0.50574447
H 2.28602755 0.50044921 0.11458877
H -1.98603533 1.56740730 0.80365206
H -3.23134022 1.07960612 -1.00624413
H -0.70377198 -1.22448934 -1.03721140
