12

O 1.0453342 1.1023337 -1.0120041
C 0.60116625 1.0151787 0.3175875
C -0.4487741 -0.0874627 0.4488958
O -1.4929292 0.18705599 -0.44678524
C 0.15480037 -1.4365257 0.11396958
O -0.32990158 -2.1434567 -0.73467124
H 0.24032617 1.1314075 -1.5502509
H 0.16224554 1.9594709 0.6706202
H 1.4724176 0.7917639 0.94257367
H -0.8072073 -0.13035832 1.4910914
H -1.640344 -0.63802654 -0.93944156
H 1.0428661 -1.7513807 0.6984145
