12

O 1.36998239 1.26734663 0.25554605
C -0.00653378 1.19439553 0.49665124
C -0.77161998 0.32535858 -0.49429348
O -0.90600271 -1.06792137 -0.11520253
C 0.17898648 -1.83076691 -0.06205627
O 1.32143444 -1.47261381 -0.21285996
H -0.29750162 0.38167295 -1.47818234
H -0.39678037 2.21318467 0.39696620
H 1.68533981 0.35737401 0.12638918
H -0.24427199 0.85370065 1.51816248
H -1.81352339 0.64622115 -0.56605377
H -0.11950923 -2.86795206 0.13493283
