12

O 1.0081253 -1.1737064 -1.2514737
C 0.2877868 0.8807953 0.90258753
C -0.03771523 -1.6284338 -0.85695714
O 1.4912552 1.127162 0.23235056
C -0.8597062 0.45437914 -0.0051473705
O -0.9901653 -0.97652245 -0.20135829
H -0.008967383 1.8252941 1.3716502
H 0.3921898 0.13599104 1.7090888
H -0.34952852 -2.6701224 -1.0029529
H -1.8226566 0.71464485 0.44055805
H 1.6485959 0.37155092 -0.3579695
H -0.75921386 0.9389679 -0.9803765
