11

O -0.471031 1.7302328 0.40110368
C 0.8861338 -0.06693644 0.29197562
C -0.10556275 -1.0698229 -0.34793842
C 0.07647337 0.81433773 1.2006472
O -0.8541426 -0.5003156 -1.3954185
H 0.46134192 -1.8959459 -0.78650385
H 1.6173899 -0.62051666 0.8857673
H -0.7558084 -1.4930497 0.43305808
H -1.067419 2.2690604 0.9421347
H -1.1738999 0.36321414 -1.0979426
H 1.3865247 0.46974236 -0.5268834
