10

O -0.4168521 1.3251213 1.1346178
C 0.07667411 0.77346045 -0.023488946
C -0.6985131 -0.29102072 -0.77859235
O -0.090990126 -1.2682457 0.75672865
C 0.82941103 -0.5631332 0.12314167
O 0.28697577 -0.86257035 -1.4170486
H 1.9006977 -0.7738891 0.20147222
H -1.7517215 -0.44278952 -1.0193706
H -0.6342527 0.56081635 1.6960884
H 0.49857092 1.5422508 -0.6735484
