9

N -0.1194621 -0.84722275 0.4522891
C 0.35790354 0.3773808 0.8599773
C 0.27527803 1.1782676 -0.24614489
N -0.23651657 0.48066232 -1.3118979
C -0.46217382 -0.7281589 -0.8607795
H -0.20049809 -1.6773821 1.0155917
H 0.7001435 0.5507893 1.8690804
H 0.5538248 2.2184534 -0.34616402
H -0.8684992 -1.5527898 -1.4319521
