11

C -0.50486173 -1.38649864 0.20029449
C -0.48288937 -0.21367895 -0.30981820
C -0.97077497 1.02341284 -0.93218401
N 0.85046605 -0.82914919 -0.03909529
C 1.54705378 -0.24202698 1.02958303
O 1.51075702 0.93249301 1.29738752
H -0.91197226 -2.33912098 0.47821818
H -0.50263504 1.14690792 -1.91462147
H -0.68568235 1.87541145 -0.31003499
H -2.05610303 0.99414813 -1.04786631
H 2.20664207 -0.96189875 1.54813686
