11

C 0.85783464 -1.4100648 0.8875982
C -0.50025034 0.31585926 -0.15751413
C -1.2761487 -0.13071951 0.756134
N -0.32881725 -1.1256479 0.19262724
C 0.066653445 1.2388816 -1.1486839
O 1.9061395 -0.84726465 0.69564295
H 1.1236404 1.4022996 -0.9243583
H -0.46734688 2.191193 -1.1376178
H -2.1254227 -0.1550619 1.4108179
H -0.005055575 0.79228073 -2.1461782
H 0.74877334 -2.2717552 1.571532
