9

N -0.8071555 1.8456857 -0.12821268
C -0.108816445 0.811067 -0.35250983
N -0.2372377 -0.30957845 0.45638913
C 0.47983575 -1.4712518 0.30117506
O 0.3649925 -2.441358 1.010421
H -0.59749013 2.572381 -0.8036052
H 0.6280845 0.67971015 -1.1508164
H -0.9047346 -0.26225454 1.2180252
H 1.1825215 -1.4244009 -0.55086625
