9

N 0.6654711 -0.8000001 -1.5792693
C -0.40454572 0.756075 1.4429965
N 0.24337325 0.43957305 0.25566962
C -0.000685976 -0.7309488 -0.40300667
O -0.19841817 1.7669727 2.0656312
H -1.1239299 -0.028785963 1.7332941
H 0.52289605 -1.7368939 -1.9578558
H -0.65075237 -0.76190335 -1.4757332
H 0.9465917 1.0959115 -0.081726134
