9

N -0.20373707 -0.08306553 0.41776648
C -0.96602247 0.67994177 1.29438617
N 0.96191844 -0.43086277 -1.44736773
C 0.24174476 0.44884866 -0.75407785
O -1.38758566 0.25825369 2.34153277
H -1.12410669 1.69699872 0.90531256
H 1.33912506 -0.14403312 -2.33535600
H 1.16681023 -1.38730431 -1.16144455
H -0.02814672 -1.03877694 0.73924817
