12

O -0.9846365 -0.28506637 0.062476423
C -1.2082313 -0.52955955 1.4619623
C 0.6288472 0.437843 -1.6472006
O 1.1317118 0.4299934 0.57950705
C 0.19915925 0.17409869 -0.27970693
O 1.7324547 1.0588304 -1.7212116
H 0.6869642 -0.81687754 -1.3152349
H -1.1443362 0.40685377 2.0199428
H -2.2145767 -0.94141436 1.518759
H -0.1448098 0.4212276 -2.4251432
H -0.47409785 -1.2408243 1.8447528
H 1.7915515 0.8848953 -0.0989033
