12

O -0.6648162 -1.4518564 0.88399136
C -0.0589274 -0.2240158 1.199779
C 0.44345993 0.4540854 -0.074992076
O 1.3265767 -0.42434692 -0.72079194
C -0.7097557 0.77518827 -0.9974706
O -0.7244742 0.37666154 -2.1361246
H -0.03761056 -1.9087312 0.30507478
H 0.78823084 -0.3477463 1.888501
H -0.8130348 0.39771774 1.6938523
H 0.9403583 1.4038486 0.18671107
H 1.0315417 -0.45825934 -1.6448952
H -1.5215486 1.4074543 -0.583635
