9

O -1.3200996 -0.6604454 0.8829792
C -0.59792304 0.29785967 0.15430312
C 0.8613861 0.19475195 0.33951783
C 2.0445986 0.077539384 0.50855666
C -0.92977625 0.23265114 -1.2938546
N -1.2071624 0.14937222 -2.411054
H -1.0041063 -1.5377969 0.63520557
H -0.9461149 1.2669673 0.527128
H 3.099198 -0.020899428 0.6572184
