9

O -2.18018658 0.22636645 1.04652997
C -1.23015129 -0.60378144 0.55456124
C -0.17730583 -0.27536113 -0.14942318
C 3.17168673 0.66294833 0.07636912
C 0.86818705 0.04301950 -0.87181194
N 2.10016922 0.36835871 -0.32003593
H -1.43796287 -1.63990224 0.81250036
H -1.96379263 1.14015548 0.80952387
H 0.84935641 0.07819628 -1.95821332
