9

O 1.3817276 0.92573905 1.1141906
C 0.18709391 0.42666647 0.9935086
C -0.7401886 0.83604956 0.037265293
C 0.51066005 -1.6295427 -0.28138775
C -1.071547 0.14300714 -0.9601146
N -0.17516844 -1.8761876 -1.220813
H -1.5746769 -0.11796509 -1.8699107
H -0.10235855 -0.20973642 1.8262635
H 1.5844582 1.5019696 0.36099815
