11

O -0.5090945 2.224136 0.7137114
C 0.16850567 1.2424088 0.87489295
C 0.13745835 0.08202541 -0.08356695
C -1.1475694 -0.22258627 -0.75997496
O 1.6299695 -1.2680724 1.1794037
C 1.0892476 -1.054035 0.12472123
O -0.10116158 0.40574828 -1.447325
H -1.3610622 -1.2525772 -1.0519952
H 1.2394694 -1.6845224 -0.7747566
H -1.9944286 0.41457945 -0.5118105
H 0.8486663 1.112896 1.7367
