10

O 1.40050380 1.50865956 -1.16400497
C 0.74734521 0.71447708 -0.55854013
C 0.09137322 -1.24688655 0.35068607
O 1.14416717 -0.55735105 -0.31121794
C -0.62880090 0.87348272 0.06253502
O -0.77708533 -0.27222910 0.87123825
H -0.41199294 -1.89477580 -0.37856587
H -0.68208668 1.77284055 0.68395940
H -1.38950109 0.93600534 -0.72720811
H 0.50607760 -1.83422253 1.17111793
