10

O 0.8222623 0.93474394 -1.7108512
C -0.017702656 0.81456274 -0.6059111
C 0.20696913 -0.4900034 0.12243754
O 1.0232074 -1.3011005 -0.25702703
C -0.61567473 -0.787019 1.3657469
O -1.4403853 -0.021592258 1.791167
H 1.3445246 0.12095851 -1.7560498
H 0.13937305 1.6350657 0.110721596
H -1.0799527 0.8590235 -0.89469975
H -0.38262102 -1.764639 1.8344655
