10

O 1.0410222 -0.5155144 1.8313692
C 0.33538723 -1.0026497 -0.49554485
C 0.4777112 -0.20334896 0.82398516
O -0.82193685 -1.4736177 -0.796654
C -0.21454865 1.0622879 0.35747904
O -0.25086334 0.68662757 -1.0193266
H 0.41732797 1.9421074 0.5126584
H 1.2312603 -1.43112 -0.9566761
H -1.2043968 1.2333369 0.7975572
H -1.0109633 -0.298109 -1.0548472
