10

O 0.4009456 2.3279247 0.111271285
C -1.0254449 0.3322081 0.019331591
C 0.25588506 1.1437747 0.085274175
O -0.6123383 -0.98809266 0.29281577
C 0.7538069 -1.0568557 -0.029784434
O 1.2806205 0.25731093 0.1020667
H -1.4820722 0.4361003 -0.97413003
H 1.2572668 -1.7186934 0.6762968
H -1.7417942 0.65932393 0.7793915
H 0.91312504 -1.3930007 -1.0625335
