11

C 1.05754361 1.06289127 -0.74017084
N 0.03499570 0.29181858 -0.05716033
C -0.02585496 -1.04129360 0.17379022
N -1.79916382 0.01331955 0.98087950
C -1.21158051 -1.20277441 0.84196158
N -1.04234562 0.91184938 0.43597052
H 1.14587956 0.74031107 -1.78028912
H 0.74554965 2.10675804 -0.70593264
H 2.01983903 0.94975056 -0.23496874
H 0.74499319 -1.73001845 -0.13890377
H -1.66985574 -2.10261211 1.22482349
