10

O 0.79522792 -0.20536307 -0.72545728
C -0.08959659 0.90058274 -0.71565743
N 0.23839192 -0.56439683 1.46607604
C 0.89659032 -0.88416069 0.43989831
C -1.50348332 0.47914846 -0.74909049
N -2.61313261 0.17158058 -0.80966950
H 0.14256617 1.46450009 -1.62209540
H 0.06916323 1.52235088 0.16796621
H 1.61834644 -1.69262677 0.31075531
H 0.44592677 -1.19161544 2.23727403
