10

O 0.4471022 -1.3755952 0.3295023
C -1.0476574 -0.121321805 -0.28556365
N -0.22534771 0.44825938 -2.6789522
C -0.57348275 0.19258069 -1.6053641
C 1.0697298 -0.4304324 0.87569225
N 0.5119766 0.734935 0.8353172
H 0.95700216 1.5595078 1.2226564
H 2.0323207 -0.6202598 1.3637973
H -1.6151751 0.68807715 0.15783058
H -1.5564685 -1.0757508 -0.21491562
