10

N 0.4855965 0.7664698 1.452586
C -0.23518124 -0.28336328 -0.42166132
C -0.5157555 0.53588253 2.1330993
N -0.091638565 -0.5781782 -1.7448827
C 0.7909345 0.5544301 0.2045296
O -1.1800499 -0.6973222 0.25117362
H -0.88643306 -1.0041931 -2.1929908
H 0.52459437 -0.029847903 -2.317902
H -0.56246555 -0.23423281 2.9027262
H 1.6703982 0.9703551 -0.26667762
