10

N 1.7347964 0.20350918 0.0585678
C -0.54219127 0.399535 1.2978237
C -1.2486932 -0.49122068 -0.97394097
N -0.6097526 -0.7277595 0.2408414
C 0.4886839 0.13436647 0.5365648
O -0.6610033 -0.2829062 -2.0068896
H -0.92036897 0.38769102 2.302891
H -2.3461075 -0.6017293 -0.90840966
H 2.3181074 0.95699567 0.38869077
H 1.7865294 0.021518216 -0.9361393
