10

N -0.91820240 0.33704617 0.05235398
C -0.39039056 -0.23379512 1.38956147
C 0.04956312 -0.69402632 0.24625002
N 0.72366556 -1.47015008 -0.60772657
C -0.41883927 1.54807750 -0.42086002
O 0.38779487 1.63320591 -1.31408549
H -0.90449636 2.42304208 0.04754027
H -0.94987461 -0.46772743 2.27588659
H 1.41403917 -2.09568862 -0.22164290
H 1.00674044 -0.97998431 -1.44727726
