10

N -0.824236 0.8726637 1.3536212
C -0.17258583 0.17720088 0.34871492
C 0.3504953 -1.0653082 0.21419069
N 0.98711675 -1.146905 -1.0268266
C 0.81097376 0.006707342 -1.554035
O 0.11185536 0.88215405 -0.77470833
H -1.5018166 1.5366638 1.007176
H -1.2334442 0.26665327 2.0505233
H 0.33456743 -1.9003574 0.8988073
H 1.137074 0.37052736 -2.5174634
