12

O -1.2617569 -0.66261303 1.233883
C 0.12715542 -0.48581776 1.184252
C 0.58281565 0.7051314 0.343375
O 0.8565445 0.40669215 -1.0455575
C -0.14683242 0.02523901 -1.8257284
O -1.2851644 -0.19055387 -1.4870024
H -1.5806777 -0.6366933 0.31728977
H 0.65858334 -1.3851767 0.8329953
H 0.45318976 -0.297034 2.214122
H 1.5477391 1.0777307 0.69512886
H -0.16241665 1.5027866 0.3973075
H 0.21082015 -0.059691403 -2.8600655
