10

O 0.67096454 -0.41522512 -1.0950861
C 1.2753854 0.19071458 0.082596876
C -0.10410119 0.13807829 0.7919538
C -1.0303252 1.0156935 0.14131631
O -0.4366116 -1.1280835 0.94731206
C -0.59719324 -0.3724522 -0.5956214
H -2.0429807 0.73544306 0.4669057
H -1.4024491 -0.89401704 -1.0990353
H 1.6252401 1.2013327 -0.12621205
H 2.042071 -0.4714842 0.48587018
