10

O -0.66366059 0.58201563 0.92493197
C 1.21881178 -0.29657104 -0.28730530
C 2.09122275 -0.08458008 -1.08268319
C -1.66830799 0.75757689 0.05301246
O -1.94257244 0.01965819 -0.85231462
C 0.16608171 -0.56721371 0.69805007
H -0.45283277 -1.40686115 0.36738496
H 2.85240655 0.11418272 -1.80451669
H -2.20937899 1.67897986 0.31343298
H 0.60823005 -0.79718733 1.67000716
