12

O -1.427353 -0.24637821 -1.0206516
C -0.25320655 0.49630818 0.97653407
C 0.70678985 -0.6327023 0.092205495
O 1.3887955 0.36451837 -0.9444454
C -0.7827721 -0.6261292 0.14831688
O -0.27089396 1.6550583 0.40786135
H 0.81862336 1.1957586 -0.72331774
H 1.1370659 -0.6230881 -1.285001
H 1.4531512 -1.1647012 0.66302943
H -1.2041982 -1.514341 0.6156874
H -0.12299119 0.36905977 2.054907
H -1.443011 0.7266368 -0.98512584
