12

C 0.5672595 -1.9290059 0.8766329
N 0.072743766 0.58499 -1.1212906
C -0.0333837 1.8221909 -1.3595579
N 0.3077623 -0.59316087 0.9573274
C -0.5995028 0.092834815 0.07089203
O 1.456748 -2.4943836 1.4717386
H -0.59597486 2.516231 -0.7195625
H 0.99003744 -0.0464675 1.4623096
H -0.15138522 -2.4576151 0.221248
H -1.1095794 0.89346385 0.6305093
H -1.3586836 -0.62926346 -0.25102296
H 0.45395845 2.2401857 -2.2392242
