12

C -0.03434788 -0.29747177 -2.25393492
N -0.00516691 -0.70014931 -1.05572805
C -0.57799395 0.18891258 -0.05729441
N 0.36289187 0.50159264 0.98982200
C 0.49999765 -0.24593059 2.12152133
O 1.40062059 -0.12515935 2.92107443
H -1.42574653 -0.33178665 0.40270399
H 0.38427119 -0.92592464 -3.03868958
H -0.32895543 -0.96809278 2.25084975
H -0.46211105 0.66804202 -2.55823144
H -0.95392673 1.12875553 -0.49287018
H 1.14046710 1.10721302 0.77077691
