12

C 0.008235265 -0.22711356 0.234412
N 1.2228576 -0.6865823 0.6275539
C 1.4830067 0.26472113 1.560454
N -0.32358682 -0.20069139 -1.1330342
C -1.601223 -0.20222083 -1.6343647
O -1.8737206 -0.15329704 -2.8103456
H 1.9800202 -0.021658724 2.4935422
H -2.365277 -0.25107664 -0.83477205
H 0.4294675 -0.13658433 -1.8044224
H -0.8439395 -0.4910476 0.8625752
H 0.13560832 0.8353167 1.2251928
H 1.7485512 1.2702345 1.2132086
