10

O 1.2490976 -1.3885185 0.991955
C 0.35838082 -0.94797105 0.015002637
C -0.018135542 0.4968968 0.22058137
O 0.42304778 1.1496662 1.1411973
C -0.9817747 1.1517341 -0.7576171
O -1.453012 0.55798215 -1.6914792
H 1.4064463 -0.6397463 1.585048
H 0.78591996 -1.0497677 -0.99440014
H -0.56806284 -1.5439346 0.01783393
H -1.2019074 2.2136586 -0.52812177
