10

O 0.14755939 -1.4671557 0.09516722
C 0.8405385 -0.38076508 0.3938603
C -0.08560283 0.008578103 -1.0811142
O 1.2055604 0.06313365 -1.1924783
C -0.26254544 0.6796314 0.2723063
O -1.3760027 0.47504318 1.0504433
H 1.7429816 -0.40168208 1.0124961
H -1.4635642 -0.49272475 1.1040154
H -0.7592076 -0.22000289 -1.9086577
H 0.010282946 1.735944 0.2539614
