10

O -0.12366399 -1.1804024 -1.0829107
C -0.06667552 -0.47991315 0.11658043
C -1.3127967 0.37261102 0.33260405
O -1.4861027 1.0050797 1.3439124
C 1.143316 0.4431757 0.14396994
O 1.9268252 0.45540002 -0.7745879
H 0.6745197 -0.9306912 -1.5776972
H 0.021480931 -1.1529568 0.9851101
H -2.0221283 0.3763494 -0.5179285
H 1.2452253 1.0913478 1.0309472
