17

C -1.20153313 1.72107635 -0.30911198
N -0.82617902 0.32594199 -0.18694671
C 0.37956521 -0.06532488 0.34875329
O 1.06608513 0.87558271 1.05405417
N 0.81251657 -1.25882455 0.24316463
C 2.05438573 -1.56552737 0.91954279
C -1.45535041 -0.58980749 -1.11159078
H -2.27257887 1.77793170 -0.52068482
H -1.03642122 2.26275730 0.63186069
H -0.66948984 2.24165721 -1.12269186
H -2.53459552 -0.40547916 -1.11903661
H -1.25775716 -1.60689945 -0.77834328
H 2.00205950 -1.37143297 2.00027175
H 2.26087127 -2.62959405 0.77683648
H 0.83387906 1.76839651 0.78447968
H 2.91024051 -1.00039211 0.52241498
H -1.06569761 -0.48006179 -2.13297249
