9

N 1.4918305 -1.2896315 -0.09335639
C -0.68327326 -0.19093943 -0.6359396
C 0.39475563 -1.0050659 -0.5922685
C -0.46529034 0.82355535 0.38353604
N 0.597554 0.7951985 1.0949093
H -1.2529823 1.5760896 0.48884466
H -1.5375801 -0.2811146 -1.2877179
H 0.81175584 -1.9772983 -1.130128
H 0.64323014 1.549206 1.7721205
