9

N -0.7745772 0.24322754 -0.8767364
C 0.5731241 0.30810413 -0.76206666
C 0.8706183 -0.11157337 0.514324
C -0.38673523 -0.40805665 1.0875318
N -1.3789927 -0.19043179 0.23838003
H -1.3413427 0.47847468 -1.6756588
H 1.1973897 0.64155483 -1.5777532
H 1.8472466 -0.19108498 0.96883625
H -0.6067307 -0.7702145 2.083143
