11

O 1.8928466 -0.4724886 0.9598274
C 0.8478753 -0.6514385 0.05051372
C -1.2696707 0.27759048 -0.9124608
C -0.1319701 0.24615568 0.05160104
O -0.15437575 1.2573996 0.96038586
H 1.9227405 -1.2396065 1.54478
H -1.244206 1.2047048 -1.4952925
H -1.2171447 -0.57011706 -1.598511
H 0.6545581 1.1588767 1.4874214
H -2.2248378 0.2454046 -0.37815824
H 0.92418474 -1.4564809 -0.6701067
