11

N -0.8258852 -1.2684287 -0.9679755
C 0.3940528 -0.5881868 -1.4199446
C 0.70168144 0.3852282 -0.33636665
N -1.1795609 -0.80711436 0.13539508
C -0.2789779 0.22420569 0.56431055
N -0.6056633 0.85477555 1.7411773
H 0.1764095 -0.13371612 -2.3945682
H 1.158036 -1.3575807 -1.5841197
H -1.2277786 0.32677433 2.3343768
H 0.15576793 1.2868203 2.2403107
H 1.5319183 1.0772227 -0.31259623
