10

O 0.08478554 1.5258619 0.87938833
C -0.4291609 0.27315146 -1.0967865
C 0.37731448 0.36301354 0.19162163
O -1.2282617 1.1357433 -1.3709974
C 0.104080155 -0.8965882 0.98465496
O 0.5612363 -1.9806979 0.42226073
H -0.6399912 1.9508237 0.3908818
H -0.02369326 -2.0717824 1.4231601
H -0.25086492 -0.6088678 -1.7364825
H 1.4445554 0.30934268 -0.087701075
