10

O 0.51688911 -1.78990830 0.61066707
C -0.56640874 -1.03439405 0.68453997
C 0.38972844 0.48494300 -1.01483682
O -1.06784035 1.31803690 0.70321219
C -0.07258773 0.38550343 0.43644438
O -0.17440506 1.23023412 -1.77720026
H 1.23537494 -0.15722126 -1.31890204
H 0.24593108 -2.70955120 0.75825970
H -1.31828662 1.70884337 -0.15162450
H 0.81160475 0.56351417 1.06944026
