10

O -1.3976675 1.3634355 -0.9433467
C 0.097801276 -1.1444554 0.73487526
C -0.4542442 0.6124367 -0.91407615
O 0.8078788 -1.7768118 -0.18474886
C 0.25857845 0.33473715 0.4067601
O -0.25313178 1.133743 1.4221683
H 1.3286256 0.54257315 0.24560413
H -0.075543486 0.08939675 -1.8101585
H 0.7286284 -2.728728 -0.015870728
H -1.0409255 1.5736729 1.0587931
