10

C -0.9332215 0.37861118 2.3667688
C -0.47525445 0.21150331 1.2669783
C 0.06581561 0.009143204 -0.0341129
C 1.3399092 0.12009236 -0.5506175
N 1.3068402 -0.19697653 -1.866067
N 0.08931665 -0.49982417 -2.2025676
N -0.66435766 -0.3790633 -1.1103309
H -1.3320087 0.5288367 3.3466215
H 2.2545693 0.40295228 -0.0531093
H -1.651609 -0.57527506 -1.1635635
