10

C -1.05906295 -0.32463491 -0.58738678
C 0.15760431 0.03043108 0.02490632
C 1.45527717 0.13637475 -0.56243141
C 2.52707146 0.21989535 -1.09262024
N -0.07346444 0.27587480 1.31706390
N -1.36536871 0.06883974 1.42697321
N -2.01393234 -0.29026921 0.33305430
H -1.84611145 0.17740865 2.30681757
H 3.48647385 0.29876662 -1.55508929
H -1.26848726 -0.59268689 -1.61128768
