10

C 1.090271 -0.23960611 -1.0984794
C 1.8680347 -0.35363093 -2.0034108
C 0.13883463 -0.07020329 -0.046711337
C -1.063682 0.661298 -0.057365976
N -0.7834793 -0.21862857 1.8009955
N 0.28857827 -0.6228625 1.1597095
N -1.6301112 0.54860103 1.1370484
H -0.95768785 -0.48062104 2.7591386
H -1.519201 1.236424 -0.8484513
H 2.5684428 -0.46077046 -2.8024733
