13

C 0.58529097 -1.5823042 -1.1676276
N 0.23052864 -0.643666 -0.12613578
C -0.05384999 0.6595375 -0.37931278
O -0.07984249 1.170208 -1.4844975
C -0.33689296 1.4754169 0.8784809
O -0.5626327 0.6935719 2.0392182
H -0.10899431 -2.427307 -1.1841729
H 0.5328997 -1.0551947 -2.1217625
H 1.6026407 -1.9605016 -1.0243777
H 0.2665861 -0.91231304 0.8465667
H -1.1678272 2.1551666 0.65172994
H 0.54740816 2.0881214 1.083414
H -1.4553146 0.3392645 1.9884771
