11

O 0.6232876 -1.6710196 -0.29204
C 0.28217667 -0.33734575 -0.53198415
C 0.7471092 0.75666875 0.44471315
C -1.12707 0.16939637 -0.18052955
O -0.5799786 1.2993222 0.51509774
H 0.5642852 -0.13736816 -1.5686176
H 1.0826669 0.35751528 1.414599
H -1.675309 -0.5072593 0.4936235
H 0.3924014 -1.890543 0.6209593
H 1.4774693 1.4907346 0.086172216
H -1.787039 0.46989876 -1.0019938
