11

O -0.66344282 1.04315282 0.87270542
C -1.09810009 0.25567220 -0.24572475
C 0.67137551 0.52388950 0.77671377
C 0.35305092 -0.13133774 -0.57839299
O 0.68486527 -1.47130954 -0.79516617
H -1.65433216 0.85069833 -0.97867364
H 1.42795122 1.31625949 0.80065420
H -1.71491029 -0.60203083 0.06540531
H 0.88886499 -0.20712501 1.57101670
H 0.76016470 0.42001767 -1.42953972
H 0.34451290 -1.99788697 -0.05899829
