11

O -1.1167425 1.2555479 -0.48785818
C -0.6141132 0.73188716 0.71745116
C 0.4637338 -0.2979045 0.45507386
C 0.42560992 -1.1371279 -0.7404191
O 1.2817161 0.006243833 -0.668753
H -0.3418199 1.4266195 -1.041106
H -0.19767417 1.5239518 1.3600758
H -1.4502149 0.27092183 1.2521577
H 1.0140483 -0.6522925 1.3286655
H -0.4101026 -1.0349522 -1.4303566
H 0.9455593 -2.092895 -0.7449313
