14

C -0.14614211 0.0801418 -0.23761053
N -1.310824 -0.34331003 0.34975314
C -1.2861129 -0.9752012 1.6530923
O 0.96856797 -0.27848026 0.25079292
N -0.07698576 0.8287841 -1.3018945
C 1.9857945 0.6596612 -1.1711533
H -1.1730528 -0.25578228 2.4760494
H 2.1354122 1.5965339 -0.6498063
H -2.2104843 -1.5392035 1.7983085
H 2.6863878 -0.12158132 -0.8890742
H 1.9229808 0.77060884 -2.24901
H -2.1394708 0.17331535 0.10864432
H -0.44070512 -1.665632 1.6856202
H -0.9153659 1.0701454 -1.8237122
