10

O -0.5839463 0.3802469 1.7465546
C -0.12880753 0.000506349 0.53366625
C -0.7164792 0.026304383 -1.303815
N 0.18484662 0.91317546 -0.65992874
N -1.0939211 -0.7154047 -0.32259455
C 1.324552 -0.36091796 0.37590975
N 1.5440259 0.3238158 -0.68878007
H -1.0048397 0.008363244 -2.3504262
H 2.0276332 -0.956727 0.9472335
H -1.5530639 0.38063762 1.7221804
