10

O 0.022347791 -1.6415272 0.77226365
C -0.943684 0.54979295 -0.8999553
C 0.27298498 -0.5614986 0.09007557
N -0.8440117 1.0552622 0.37375194
N 0.498522 1.4856875 0.7516115
C 1.2222217 0.4473524 0.62951624
N -0.1624544 -0.45313802 -1.2363148
H 2.2904556 0.3863966 0.804292
H -1.7247442 0.9034913 -1.5722055
H -0.6316379 -2.1718192 0.28696468
