10

O 0.9908732 0.50575495 -1.7967285
C 0.38326272 0.18363433 -0.65632427
C 1.1497769 -0.27760416 0.43344846
N 0.564228 -0.6019406 1.5674013
N -0.7603153 -0.49312598 1.6817865
C -1.4282085 -0.054778147 0.62719005
N -0.92159796 0.2981466 -0.5634918
H 0.3005041 0.79432315 -2.4158976
H 2.2275465 -0.38096723 0.3789664
H -2.5060697 0.026557026 0.74364936
