14

C 2.1228514 -0.16691855 -1.1972629
N 1.1216223 -0.54328877 -0.21524365
C -0.03557033 0.20535709 -0.11787721
O -0.19369857 1.2709235 -0.68654037
N -1.0000454 -0.36913362 0.6885436
C -2.156301 0.4265649 1.0630165
H 1.8455111 -0.44973224 -2.220581
H 3.0719717 -0.64285254 -0.94139546
H 2.2484272 0.9160664 -1.164596
H 1.024991 -1.5359275 -0.05426043
H -0.6582733 -0.9966471 1.4037488
H -2.9269252 -0.23367903 1.4665293
H -1.9197621 1.199762 1.8050507
H -2.5447984 0.91950554 0.1708683
