14

C 0.041582767 0.1746381 2.1878579
N -0.32688087 -0.11236025 -1.3307459
C 0.6793609 0.83290434 -1.785973
O 0.15793256 0.41579282 0.79096514
N -1.0042231 -1.5194793 0.48138434
C -0.42883912 -0.4904424 -0.005455298
H 0.5580054 1.0077492 2.6653206
H 0.5083045 -0.7761026 2.4590344
H 0.48073742 1.0657586 -2.8352318
H 0.6035197 1.7548691 -1.2083331
H -1.4265137 -2.0886035 -0.24431798
H 1.7038156 0.4497 -1.695023
H -1.0095514 0.1483693 2.4901464
H -0.53725034 -0.8627935 -1.9696287
