9

N -0.035422392 -1.3123103 1.1552817
C 0.22191527 -0.3099947 0.30126885
N -0.71768725 0.28845766 -0.34927002
C -0.27672157 1.303779 -1.1914632
O -1.0118896 1.9773359 -1.8701241
H 1.2827505 -0.04827154 0.20365272
H 0.6992985 -1.772613 1.6656737
H -0.99031645 -1.5990696 1.2959814
H 0.8280731 1.4726871 -1.211001
