9

N -0.83816997 0.05464891 -0.12147800
C -0.96048662 0.04959471 -1.50698534
N 0.66639884 -0.03121814 1.61648598
C 0.37625474 -0.02391796 0.30653931
O -2.01572254 0.12489837 -2.08624181
H -0.00313609 -0.03005992 -2.07849039
H 1.24588416 -0.09122945 -0.35875245
H 1.61516128 -0.08630217 1.94665102
H -0.08618357 0.03358564 2.28227134
