9

N -0.5377537 0.0048674466 -0.20832556
C 0.61409265 0.1944592 0.4420064
N 0.36694106 1.1280367 1.3082944
C -0.7055899 -0.9091826 -1.219128
O -1.7339956 -1.0983534 -1.8222175
H 0.2248107 -1.4795132 -1.4375674
H -0.82110035 1.0032182 0.70423
H 1.04313 1.4906753 1.9632082
H 1.5494651 -0.33420762 0.2694994
