11

C 2.3345392 0.4660144 -1.1061656
C 0.21724923 -0.30921715 0.23215048
N 1.4043213 0.12409582 -0.47692016
C -0.5842982 0.907164 0.6769576
N -0.5998711 -1.2034062 -0.548299
H -0.057045877 -2.0034053 -0.85387385
H 0.5723017 -0.86088187 1.1082402
H -1.4521627 0.5700353 1.2496547
H 0.028763387 1.5668043 1.2967082
H -0.93074983 -0.7292734 -1.3841742
H -0.933047 1.4720701 -0.19427828
