11

C 0.362763 -0.27029473 0.063454844
C 0.39715502 -0.776952 -1.8404968
N 1.12841 0.84296227 0.2787131
C -1.0148048 -0.2781002 0.68249553
N -0.47401285 0.023766464 -1.8797389
H -1.5918156 -1.128195 0.3151914
H 2.0590758 0.7917733 -0.11670062
H 0.9137674 -1.1875778 0.24296482
H -0.8927022 -0.3692651 1.7685142
H 0.6753739 1.7137489 0.03197553
H -1.5632098 0.6381341 0.453627
