10

N -1.0497675 0.26345032 0.36196706
C -0.6592767 -0.9680797 -0.09856821
C 0.66930246 -0.8863196 -0.4371035
C 1.093803 0.44357577 -0.17078172
C 0.011902539 1.1297626 0.3218906
H -1.974698 0.49593905 0.6811902
H -1.3579948 -1.7912731 -0.14483501
H 1.2759483 -1.6895448 -0.83171487
H 2.085166 0.8465571 -0.32687312
H -0.094385356 2.155932 0.64482856
