10

N -1.2978069 -0.7631633 -0.226467
C 1.0160758 0.38806424 -0.56552005
C 1.6682993 1.1744994 -1.3932002
C -0.13430543 -0.09310951 -0.01557036
C -0.9949758 -0.27213946 1.1440954
H -1.9907323 -0.3331154 -0.82533705
H -1.4534775 0.6428452 1.5171859
H 2.7055895 0.873314 -1.5807025
H -0.8984104 -1.0808991 1.8658426
H 1.3797437 -0.53629607 0.07967322
