12

C 0.5384462 -0.75112814 1.1374458
N -0.22770353 -1.7521292 0.04574176
C -0.36106846 -0.7384575 -0.7962164
N 0.13741414 0.28895447 -0.1742232
C -0.16978319 1.689782 -0.31427824
O 0.03145117 -0.55943835 2.2164161
H -0.81218266 -0.75494826 -1.7902349
H 0.0054645347 -2.6926835 -0.24745044
H 0.75189155 2.2744448 -0.40045846
H 1.6130934 -0.89696985 0.93624353
H -0.7989933 1.8728954 -1.1939762
H -0.7080298 2.0196779 0.5809909
