12

C -0.05685652 -0.01756439 -0.00963935
N -0.14834581 -1.16161134 -0.79501750
C 1.07569825 1.66542407 1.11345645
N 1.06442222 0.46911102 0.29682677
C -1.32720017 -1.75023101 -1.16563080
O -1.40185267 -2.74780705 -1.84160834
H -1.03007885 0.38968199 0.29744615
H 1.61739674 2.45307088 0.58162354
H 0.07635156 2.04286066 1.38014935
H 0.71336094 -1.59083478 -1.11328101
H 1.62992023 1.46116112 2.03598403
H -2.21281585 -1.21326109 -0.78030957
