12

C -0.7657405 1.1746756 0.0043727914
N -0.1849524 -0.15311715 -0.14441559
C 1.0643257 -0.41262132 0.40279028
N 1.703046 0.48614582 1.0301442
C -0.85676837 -1.1473484 -0.8196715
O -1.941256 -1.0224941 -1.3323702
H -1.7408625 1.1562262 -0.4831762
H -0.115329154 1.9181901 -0.46192792
H -0.8662796 1.4180225 1.0645494
H 1.3988498 -1.4423548 0.22597426
H 2.5893822 0.11924502 1.356298
H -0.2844151 -2.0945694 -0.8425678
