12

C -1.0622102 -1.2165624 -1.8908066
N 0.97792906 0.26757118 0.6428268
C -0.0534992 -0.008930845 -0.02630908
N 0.01274798 -0.8663711 -1.1192135
C 0.8275912 1.173013 1.7634292
O -1.0014874 -1.9672225 -2.834469
H -1.0621518 0.37777284 0.17467108
H 1.4937004 2.0288231 1.6200465
H 0.9149683 -1.2609148 -1.3608676
H -0.19786935 1.5452079 1.912355
H -2.0007372 -0.7363901 -1.5595576
H 1.151018 0.66400355 2.6778946
