10

C -0.88714355 0.22925344 -0.23451582
C 0.91694164 -0.582131 0.34585464
N 0.9899818 0.76478934 0.906468
C 0.119840555 -0.64619845 -0.8972632
C -0.12671752 1.2588029 0.54346657
N -0.48182067 -1.0854754 0.35436976
H -1.9103228 0.31734085 -0.5795011
H 1.6993356 -1.293029 0.5879655
H 0.13263953 -1.2294102 -1.8077333
H -0.4527346 2.2660577 0.7808891
