10

C -1.09399208 0.28564710 -0.46354179
C -0.15577414 -0.68975718 -0.99167801
N 0.98029727 -0.90905325 -0.45435763
C 1.97763508 -1.20525993 0.18739013
N -0.85890453 0.95578959 0.59607135
C -0.52066862 1.68877636 1.51468563
H -2.04031808 0.44374271 -0.96682497
H -0.42017968 -1.25432284 -1.87826167
H 2.90998455 -0.69640720 -0.07516885
H -0.77807937 1.38084434 2.53168604
