10

C -1.0815483 0.24425836 -0.25238442
C -0.31827685 -0.59863245 -1.0507083
N 0.9506666 -0.8917056 -0.7647562
C 1.4448014 -0.32517052 0.3362436
N 0.8105868 0.49476027 1.1760478
C -0.4550619 0.7722481 0.870484
H -2.1138139 0.4774288 -0.4926959
H -0.7319535 -1.0543574 -1.9465003
H 2.478895 -0.55833346 0.57696694
H -0.98429495 1.4395036 1.547303
