11

O 1.9932144 0.035209622 1.4212192
C -0.20679767 1.1505281 -0.6789955
O -1.0994014 -0.68544436 0.9147663
C -0.35640898 -1.5751435 -0.437922
C -0.10034901 -0.19955795 0.014463725
C 1.15731 0.37371212 0.6460042
O 1.051223 1.5428623 -0.05169017
H -0.121914014 1.1329899 -1.7652949
H -1.0250787 1.7871107 -0.3381631
H -1.627001 -1.3097634 0.1923839
H 0.3352033 -2.2525034 0.08322828
