12

N 0.85164964 0.021958333 -1.2348689
C -0.38246158 -0.06652292 -0.6671167
N -0.26786494 1.2525032 -0.04732269
C 0.95699793 -0.094245 1.2983155
C 0.34694222 1.1226761 1.1431267
C 0.86253303 -0.74593633 0.022916988
N -1.5228984 -0.5539836 -1.2691028
H -1.5423934 -0.3988268 -2.2687285
H 0.41653034 1.9891063 1.7963858
H -2.379473 -0.27053475 -0.8121596
H 1.2138201 -1.7609048 -0.13593589
H 1.4466182 -0.49528962 2.17449
