12

N 0.6900662 -1.4997318 1.1466103
C 0.15438397 -0.45865056 0.3824805
N -0.10210224 0.8760185 0.8677278
C -1.2256498 0.08908459 0.26177096
C -0.40044296 0.96399933 -1.4868487
C 0.62405574 0.7185023 -0.4390598
N -1.5421245 0.57706696 -1.0558022
H 1.4407123 -1.1991738 1.7531083
H 0.9763488 -2.2870443 0.577812
H 1.660715 1.0375028 -0.46673483
H -2.0295672 -0.22296959 0.9231933
H -0.24639517 1.4053959 -2.4642575
