10

O -2.0532188 -0.03942021 0.18240951
C 1.3582839 0.61138374 0.10684922
N -0.0022500777 -0.9726853 -0.76743704
C 1.3071055 -0.5343454 -0.6621201
C -0.5568183 -0.03311712 -0.06677417
N 0.07953151 0.94035375 0.52265507
H -2.2891667 -0.8503227 0.66879743
H 2.2063193 1.2219069 0.38813674
H 2.1063187 -1.0769696 -1.1470339
H -2.156105 0.73321587 0.77451724
