10

O -1.63277479 1.16557657 -0.47540772
C -0.36344842 0.40163172 -0.14899458
N -0.44124134 -0.32991713 0.92748023
C 0.83236484 -0.87052987 0.88288643
C 1.48970791 -0.39725869 -0.23539027
N 0.66303794 0.46263102 -0.93884745
H -2.22562438 0.87813063 0.24850376
H 1.17356415 -1.54840793 1.65430694
H 2.48946448 -0.60640294 -0.58904214
H -1.98505075 0.84454653 -1.32549527
