10

C 0.9047478 0.067607254 0.8473687
C 0.060334664 0.29738766 -0.41883147
O -0.059804402 1.485691 -0.9059198
C -1.2379916 -0.36141288 -0.47051832
H 0.9649155 -0.991147 1.1207786
H 1.9100227 0.45442817 0.6650438
H -1.3482486 -1.4134499 -0.70563126
H -2.1168978 0.27577507 -0.58655804
H 0.46317443 0.6280266 1.6763904
H 0.4597472 -0.44290596 -1.2221226
