10

C -1.16751725 -0.12090948 -0.44573984
C 0.30703555 -0.36617457 -0.24964874
O 1.18092830 0.69374879 -0.60854356
C 1.08412786 0.34669255 0.76512112
H -1.43532027 -0.20024011 -1.50494658
H -1.75855559 -0.85662912 0.10990180
H -1.43704372 0.88150304 -0.09977373
H 0.66838548 -1.34921779 -0.55632364
H 1.97317391 -0.11208885 1.19600625
H 0.58478578 1.08331552 1.39394694
