11

C 1.1850119 0.8787812 -0.3549082
C -1.162616 -0.9697686 0.090404205
C -0.42688316 0.022301905 0.7449393
C -0.053654954 1.2494352 0.11835066
N 1.522653 -0.40060884 0.02835778
O 0.7142951 -0.57589716 1.213321
H -1.1855675 -1.970443 0.51484954
H -1.9928805 -0.69439524 -0.5555525
H 1.8124071 1.3856723 -1.0789394
H -0.6713014 2.0933032 -0.14751756
H 0.25853643 -1.0183811 -0.57330453
