9

C 0.77421445 0.11876154 -1.6543612
C 0.15084797 0.02523187 -0.33415043
C -0.35066232 -0.04327571 0.7588486
C -0.97231203 -0.15039594 2.0677922
O -0.6535731 0.5151807 3.0259595
H 0.8129493 1.1598009 -1.9878045
H 0.22048865 -0.46181247 -2.3967018
H 1.799349 -0.26165047 -1.6161722
H -1.781302 -0.9018406 2.1365902
