9

C -0.17759973 1.99693793 1.24944232
C -0.28603449 0.94240734 0.49702051
C 0.37089892 -0.14488718 0.09655498
C -0.16414255 -1.15697984 -0.86367817
O -0.26796497 2.98614296 1.86452092
H 1.37499512 -0.34171587 0.48122380
H -1.16370948 -0.89326082 -1.21222552
H 0.50850067 -1.24462983 -1.72569046
H -0.19494357 -2.14401486 -0.38716800
