12

O 0.0228728 -0.24944732 1.1560729
C 0.6212052 -0.042481106 -1.0412644
C 0.87537795 -0.8733954 0.21044712
O -1.4799607 1.4576234 0.980576
C -1.0982153 0.24911366 0.46105352
O -0.7445356 0.30370867 -0.9032945
H 0.74849576 -0.59704095 -1.9758818
H 0.58724934 -1.9226661 0.06427598
H -1.9689128 -0.40914544 0.5718698
H 1.2488416 0.8572757 -1.0639867
H -0.7147749 2.0500343 0.96016073
H 1.9023566 -0.82357925 0.57997125
