12

O -1.81812499 1.16436683 0.78431514
C 0.96816341 -0.73132565 0.31814542
C -1.17706728 0.05332948 0.30392992
O -0.09661842 -0.28859636 1.14307860
C 0.75749393 0.09808153 -0.94261077
O -0.65214909 0.21767714 -0.99490271
H -1.93605673 -0.73848531 0.27816631
H 0.87735501 -1.80631937 0.11444111
H 1.91245261 -0.53417318 0.83114024
H 1.22760697 1.08611353 -0.86019367
H -1.16399272 1.87089074 0.88336915
H 1.10093722 -0.39155964 -1.85887897
