11

N -1.219174 -1.8352578 -0.38902175
C 0.87890637 -0.5581457 -0.4259588
C -0.56903386 -0.7864103 -0.12084909
C 1.3526937 0.65918314 0.08049436
C 0.08425627 1.2598207 0.6326798
O -1.0193315 0.33026564 0.4951048
H 0.23076163 1.4591888 1.6999798
H 1.4863687 -1.3544726 -0.84658253
H 1.1432369 0.3860972 -1.2129656
H -0.18959357 2.196939 0.14071842
H -2.179091 -1.7572083 -0.0535994
