11

O -0.7108212 -1.1271248 -1.568986
C 1.1145083 0.07525967 -0.14754587
C 0.56455255 1.1147625 0.51348895
C -0.8490175 0.7957294 0.12297062
C -0.2727017 -0.5684557 -0.49313027
N -0.26788786 -1.5814825 0.48377228
H 0.9732426 1.8841805 1.158786
H -1.5959471 0.68496084 0.9139281
H 0.1540076 -2.372607 -0.011500021
H 2.1253378 -0.3066313 -0.27204907
H -1.2352731 1.4014086 -0.6997346
