10

N 0.22548528 1.7675178 0.3932683
C -0.20128438 0.4799146 0.16246593
N -1.4017135 0.04979045 0.35944098
O -1.3371971 -1.3388641 0.10590223
C -0.0815502 -1.6979586 -0.26030543
O 0.27974242 -2.8101609 -0.52242565
N 0.6439079 -0.51390904 -0.25626704
H 0.7577846 2.1730425 -0.36426783
H -0.5332248 2.3703356 0.6821175
H 1.6480497 -0.47970852 -0.2999291
