11

C -0.87932014 -0.79887706 -1.1916236
C -0.1275207 -0.06335991 -0.14079854
C -0.26339412 1.1325009 0.47003627
N 0.76056695 1.3024807 1.3960752
C 1.4462427 0.22109576 1.2987736
O 0.98133194 -0.6640516 0.3929547
H -1.2577695 -1.7522839 -0.81112844
H -1.7295357 -0.19576001 -1.521089
H -0.24611807 -1.0071633 -2.0589385
H -1.0202086 1.8878772 0.31869534
H 2.3357253 -0.062458664 1.8470429
