10

O -1.3230339 -1.4379439 0.734448
C -0.32849208 -0.6246208 0.5745766
C 0.26927853 0.6174631 -1.1140224
N 0.34808797 1.5776844 0.8976795
N 0.5205077 -0.6327724 -0.49591148
C 0.20428868 0.3622483 1.4231324
N 0.043018702 1.7000302 -0.44765496
H -1.3650669 -2.0381398 -0.030625552
H 1.2637057 -0.19796124 0.65083754
H 0.36770558 0.6740123 -2.1924598
