10

O 0.99157846 0.5051734 -1.7968664
C 0.38307664 0.1826768 -0.65525955
C 1.1495225 -0.27812812 0.43524337
N 0.56666356 -0.6032388 1.570566
N -0.7625637 -0.49100015 1.6796175
C -1.4288058 -0.05447113 0.6282176
N -0.92114097 0.29745412 -0.56325674
H 0.30199867 0.79499745 -2.4170883
H 2.2273657 -0.379655 0.37730038
H -2.507695 0.02619141 0.74152595
