10

O -1.5192058 -1.2556561 -0.05299976
C -0.2478229 -0.7074068 -0.09977531
C 0.8413634 1.1588209 -0.5964021
C 0.15118876 0.13379395 -1.255818
N 0.074909285 0.105440326 1.0983043
N 0.79839164 1.115479 0.7601955
H 0.02175729 -0.16558538 2.0720186
H 0.5273073 -1.5001602 -0.07801344
H -2.0048068 -0.8840714 -0.8004622
H 1.3569179 1.999346 -1.0470475
