10

O 0.022367246 0.32433754 2.0221837
C -0.02523081 0.11931016 0.6880042
C 0.8897934 -0.28795704 -0.25565392
C 0.1445614 -0.27945575 -1.4609445
N -1.1077248 0.09554455 -1.2792879
N -1.1915823 0.33642572 0.049648784
H 0.9156532 0.13434768 2.3347652
H 1.9261024 -0.5485491 -0.10017043
H 0.4862741 -0.5362581 -2.4537125
H -2.060214 0.6422544 0.45516762
