11

C -0.61064833 0.3825684 -1.0672632
C -0.17810221 0.040204614 0.30817127
O -1.1280895 -0.27590093 1.1198089
C 1.2287866 -0.11335668 0.7616795
O -1.300102 -0.8110693 -1.160942
H 1.2806356 -0.42177832 1.8066653
H -1.805317 -0.5408569 0.36644724
H -1.2109152 1.3128772 -1.1188573
H 1.7791072 0.81754905 0.5911297
H 1.6856123 -0.8840011 0.13329111
H 0.25903273 0.493764 -1.7401305
