11

C 0.76594345 1.12402651 -0.18248348
C -1.26574287 -0.44470157 0.23964748
O 0.93930931 -1.20362834 -0.60233644
C 0.16369374 -0.23998017 0.00806264
O -0.29879112 -0.56360234 1.29557014
H 0.85882232 1.34423755 -1.24970672
H 0.14098432 1.88482000 0.29244344
H -1.72845684 -1.38568495 -0.06423490
H -1.94509956 0.40202386 0.32816877
H 1.76346510 1.15134940 0.26472373
H 0.60587235 -2.06885990 -0.32985438
