11

O -0.55362314 1.6841733 -1.5846437
C 0.42348716 -0.88783187 0.4144116
N 0.47799465 -0.26008925 -0.7815852
C -0.91772366 0.7940917 0.65575874
O 0.80837566 -2.168386 0.5952785
C -0.3498456 0.77263856 -0.62513226
N -0.46637604 -0.29341763 1.3282274
H -1.5284299 1.5540655 1.1213348
H -0.051603515 1.4019436 -2.3617654
H 0.8371086 -0.18424474 1.4246031
H 1.3206357 -2.4129436 -0.18648757
