11

C -0.29698277 0.37712182 -1.63612198
C 0.22279211 -0.56608426 -0.59011223
O -0.84583980 1.60985044 -1.24829715
C 0.46757882 -0.72355345 1.72277796
O 0.03542988 0.01528207 0.57342060
H 0.55060149 0.52710869 -2.32611730
H -0.79797004 1.64693907 -0.28554055
H -1.03389228 -0.21447423 -2.20517904
H -0.40436495 -0.88052711 2.36141705
H 1.21091658 -0.11839850 2.24506628
H 0.89173106 -1.67326442 1.38868668
