9

N -0.7926573 -2.2372797 0.4389174
C -1.0942699 -3.2205865 0.9839439
O 1.04114 2.9266052 -0.7909739
C 0.7651826 2.0448887 -0.051018883
O 0.26522675 0.8477359 -0.54162806
C 0.011813087 -0.07242689 0.41137266
N -0.455922 -1.1355753 -0.24572141
H 0.8522025 2.0343769 1.046309
H -0.5927155 -1.1877387 -1.2512007
