9

N 0.60153415 -2.22498757 0.71691105
C 1.16659673 -3.23447979 0.84554248
O -0.55450977 0.87603326 -0.08629601
C -0.24839486 2.00252401 -0.83538899
O -0.98568739 2.92837393 -0.85303971
C 0.36493715 -0.10691713 -0.17321166
N -0.09831456 -1.08772615 0.60412018
H -0.95849234 -1.04928958 1.14360039
H 0.71233107 1.89646890 -1.36223758
