9

N -0.5107877 0.20980816 -1.5390909
C -0.37989515 0.027548559 -0.23904313
O 0.040239006 -0.92291254 2.2547667
C -1.6213968 1.2936637 -0.16493744
O 0.8150852 -0.42589036 0.15215749
C 0.939523 -0.78884643 1.4926043
N -1.5554836 1.2460741 -1.440977
H 0.26414195 0.2970891 -2.201494
H 2.008574 -0.93653446 1.6860139
