12

O 1.0374832 -0.3320961 2.154333
C 0.39577553 0.23020354 -0.57716835
C 1.522559 -1.1074448 1.0994341
N 1.146842 -0.6422074 -0.22481573
N -2.3238113 0.105104215 -1.1285726
C -1.5876869 1.0966023 -1.396228
N -0.22920236 1.1787328 -1.0422869
H 1.1034689 -2.1087458 1.2217398
H -1.9177719 1.9962728 -1.9228033
H 1.5098395 0.5063036 2.175899
H 2.6158597 -1.1849524 1.1001809
H -3.2733557 0.26222736 -1.4597121
