12

O 0.60543426 1.98246447 1.23737388
C -1.42260663 -1.14134186 -1.53175320
C 0.46301860 -0.29248366 -0.49277006
N -0.20171082 -0.44378894 -1.51349621
N -2.02057492 -1.53651324 -0.49114736
C 1.42368241 0.86401361 1.40711914
N 1.25993879 -0.17193466 0.40151190
H -1.78219128 -1.28932770 -2.55373350
H 0.91469830 2.49055095 0.48060212
H 2.48978614 1.11825953 1.41693086
H -2.89260420 -2.00268340 -0.73244789
H 1.16312942 0.42278537 2.37181011
