12

O 0.40352324 1.1788527 -2.1700265
C 0.7542132 1.2904813 -0.81463456
C 0.2084563 0.16888765 0.019258024
N -0.7502645 -0.6152305 -0.42968464
N -0.97936505 -1.4210074 0.628133
C -0.16464773 -1.0924058 1.6437992
N 0.6027799 -0.08468028 1.2987734
H -0.48405358 0.8015422 -2.212682
H 0.4061386 2.2394223 -0.37804145
H 1.8465958 1.287666 -0.7502021
H -1.6755387 -2.1465163 0.5706409
H -0.16783741 -1.6070114 2.5946665
