12

O -0.99963474 -0.53715220 0.32294705
C -0.05409527 -0.03575841 1.25190486
C 1.11696296 0.32107606 0.34707929
O 0.46592009 0.73336746 -0.83981019
C -0.81405220 0.13972062 -0.89328600
O -0.97031338 -0.71234087 -1.95498827
H -1.56335207 0.92801405 -1.03803872
H 1.76059850 -0.54771639 0.15882085
H 0.16529939 -0.81776905 1.98181768
H 1.72731759 1.14925335 0.71860101
H -0.45044056 0.84971360 1.76543020
H -0.38421061 -1.47040828 -1.82047773
