12

O 1.0263565 -0.24243958 0.84447074
C -0.117807515 -0.14719695 -1.1642832
C 0.2941418 -1.1053194 -0.032539893
O -0.37455356 1.0964206 -0.5290203
C 0.2769872 0.85523224 1.0927185
O -0.92551863 0.7765135 1.5612513
H -0.57110876 -1.5228152 0.49289206
H 0.9698259 -1.8959023 -0.35441875
H 0.9219181 1.7085614 1.31989
H 0.7006329 -0.007752089 -1.877892
H -1.1912682 0.969909 0.3473868
H -1.0096056 -0.48521113 -1.700455
