10

C -2.6423209 -0.8002516 0.093902886
C -0.12739341 -0.055167604 -0.083265096
C 0.69277537 0.44782865 0.93971926
C -1.4953566 -0.4637482 -0.008325186
N 1.7596081 0.34167835 -0.8331506
N 1.894902 0.69276386 0.4317006
N 0.58653945 -0.11182247 -1.2108927
H 2.5290306 0.41911682 -1.4794267
H -3.6640801 -1.1030422 0.17164548
H 0.46629587 0.6326445 1.9780922
