12

N 0.5570184 0.6803915 1.0286074
C -0.37840912 -0.36052543 0.6070306
C 1.3370275 1.2104331 0.053220306
C -1.7658367 0.139125 0.56136256
N -2.8466594 0.5451438 0.547453
C 0.18891777 -0.7043427 -0.7915856
N 1.0656387 0.4398685 -1.0172129
H 1.6104128 0.528125 -1.8582127
H -0.595871 -0.77980083 -1.5482814
H 0.7522512 -1.6427757 -0.7582027
H -0.34716865 -1.225904 1.2771515
H 0.42267826 1.1702619 1.8986701
