11

O -0.042558562 -1.2263666 1.6743467
C 0.0033754094 0.9366989 -1.2246644
C -0.14737031 -0.3522173 0.6852809
C -0.9602073 1.5405127 -0.4784562
C 0.61283946 -0.2984304 -0.5921222
N -0.9801312 0.64405507 0.7122982
H 0.63665783 -1.8857156 1.4767551
H 1.6896223 -0.22059749 -0.3839815
H 0.33047372 1.2833738 -2.1974428
H 0.46213266 -1.2238126 -1.166197
H -1.6048341 0.80249953 1.4941833
