12

C -0.350743 -1.1045954 0.9789826
C -0.25983602 -0.6279418 -0.4684403
N -0.2642502 0.82104325 -0.5826218
C 0.87864155 1.5512444 -0.4925886
O 1.996058 1.0814404 -0.40629944
H -0.34495294 -2.1976104 1.022554
H -1.2723997 -0.75021297 1.4547498
H 0.50348467 -0.72778213 1.549526
H -1.0957263 -1.0169253 -1.0594194
H 0.6695962 -0.9816625 -0.9246191
H -1.1446519 1.3125015 -0.5444487
H 0.68477964 2.6405015 -0.5273753
