12

C 1.2142872 -1.0113287 -0.702775
C -1.1451985 0.2650989 1.0402683
N 1.481826 0.23580204 -0.49390683
C -0.64820737 0.5837377 -0.33183444
O 0.005035295 -1.3600543 -0.71921724
H -0.24958366 1.5855657 -0.44033042
H -1.8582206 1.0531025 1.3256413
H -1.6394181 -0.7064364 1.0825211
H -1.2819525 0.2961896 -1.1610055
H -0.3224155 0.28951728 1.7591907
H 2.4504402 0.53712356 -0.49789828
H 1.9934072 -1.7683177 -0.8606537
