11

C 0.38972891 0.03637857 -1.28005854
C 0.46719113 0.51785143 0.08021313
C 0.30642703 -0.48047934 1.09690853
C -0.04195723 0.00983245 2.30106611
O 1.41348626 -0.53637061 -1.62269921
N -0.66304174 0.29762597 -2.10944764
H -0.46837381 0.22796552 -3.09908718
H -1.31519656 1.01396372 -1.83170825
H 0.30583128 -1.55258524 0.88707296
H -0.40731395 -0.61792610 3.10857402
H 0.01321859 1.08374370 2.46916576
