9

N 0.57689205 -1.58528229 0.56873619
C 1.64980624 -1.54023731 -0.13612885
O -0.99601793 1.14482262 -1.39341300
C 0.07643516 -0.76736865 -0.53371448
C -0.50735221 0.60391497 -0.42528677
C 0.61150071 -1.56942034 -1.49118037
N -0.43264304 1.12201916 0.82228596
H -0.11400829 0.57311105 1.60493812
H -0.86461294 2.01844059 0.98376318
