9

N 1.0134128 1.1173657 -0.21820351
C 0.9995136 -0.16754189 0.22399636
O 1.9568481 -0.7892608 0.6315762
C -1.254135 -1.6538166 0.32064766
C -2.7087173 -0.83982706 -0.1570105
C -0.310971 -0.81343263 0.1779939
N -1.7677464 -0.057002693 -0.26763362
H 0.18823369 1.5794797 -0.55622846
H 1.8835618 1.6240362 -0.15513805
