13

C -0.47534828 -1.86462623 -0.19783699
N 0.01282429 -0.58393350 -0.68204907
C 0.50365144 0.33019143 0.22368500
O -0.41615451 2.14149513 -0.96207309
C 0.30458708 1.64800177 0.11963542
O 1.27520013 -0.24456762 1.18963332
H -0.71966775 -2.48780420 -1.06204004
H -0.57830619 -0.12152031 -1.35558641
H 1.57631821 0.44540035 1.78945452
H 0.31036276 -2.36596411 0.37106994
H -1.24256633 2.51543135 -0.62881343
H 0.81787699 2.36729167 0.75499283
H -1.36877829 -1.77939594 0.43992794
