10

C 0.3806014 -0.30060405 0.065946855
N -0.1919956 -0.41568494 1.4003464
N 1.020203 1.4397426 1.2469956
C -0.69407207 -0.2745647 -1.014409
N 0.13726749 0.54930145 2.082009
N 1.1362123 0.9365571 0.13106015
H -0.22858575 -0.15412955 -1.9949579
H -1.3799255 0.5597676 -0.8425622
H -1.2577125 -1.2096586 -0.9928984
H 1.0780072 -1.1307268 -0.0815306
