10

C -0.4313492 0.45006374 0.6593907
N -1.9660223 -0.31337428 -0.55995864
N -1.183044 -1.3311194 -0.27186987
C 1.1330596 0.028790703 -0.32595026
N -1.5402737 0.807312 -0.014293923
N -0.21702544 -0.91051227 0.54625577
H 1.0945218 1.0198509 -0.779626
H 1.161294 -0.74057466 -1.0905302
H 1.9308625 -0.0718265 0.40247798
H 0.017976345 1.0613899 1.4341043
