9

O 1.3786951 -0.616748 0.49433002
C -0.6023783 0.8379283 0.42522725
C -0.036389794 -0.49840844 0.40783378
C 0.7634321 -0.97871983 -0.7281386
C -1.1056055 1.9314001 0.45092514
H 0.95033985 -0.3024034 -1.5600107
H -1.5425527 2.9049923 0.4730246
H -0.57697135 -1.2366079 1.0007263
H 0.7714306 -2.0414333 -0.96391785
