9

O 2.5036874 -0.30368847 -0.04673854
C 1.4267442 0.22134836 -0.13176
C 0.21098925 -0.2345097 0.6657714
C -1.0241445 -0.09622112 -0.106142834
C -2.0110438 0.037016883 -0.7801771
H 1.2535057 1.0979578 -0.7914591
H 0.15655375 0.39325246 1.5651683
H 0.37637287 -1.2644695 0.9984678
H -2.8926644 0.14931326 -1.3731302
