9

O -1.320545 -2.035997 -0.18263102
C -0.938851 -0.8479272 -0.54259443
C 0.40187275 -0.4932369 -0.050062824
C 1.0569326 1.8319983 0.94313455
C 0.7616638 0.74525106 0.49284843
H -0.7561901 -0.6707697 -1.6621101
H -1.64625 -0.008824572 -0.32433224
H 1.3231106 2.793219 1.3274156
H 1.1182567 -1.3137132 -0.0016679879
