11

N 1.4737817 0.36907455 1.3606546
C 0.43778715 0.20033526 0.4402313
N -0.27785456 1.2322085 0.023811527
N -1.2145152 0.6853896 -0.77996475
C -1.0988908 -0.65251666 -0.8907136
C -0.02977986 -1.0216907 -0.106542245
H 2.2855468 -0.1956206 1.1542445
H 1.7333529 1.3430227 1.4458307
H -1.8895965 1.2898628 -1.2156591
H -1.7756053 -1.2354131 -1.4994442
H 0.35577366 -2.0146523 0.06755131
