11

O -0.70285445 -1.101889 0.5053099
C 0.5539599 0.2589648 -1.0166516
N 0.67352396 0.6463626 0.5920676
C -0.632067 -0.64366335 -0.8859994
C -0.15439403 -0.23414835 1.3414267
O -0.287076 -0.19466126 2.5328457
H 1.5393933 0.20480695 0.07264347
H -1.6064339 -0.17050815 -1.0842447
H 0.34896013 1.2025868 -1.5215815
H 0.8002027 1.5809548 0.9597017
H -0.5332147 -1.5488058 -1.4955178
