11

O -1.69572669 -0.58728462 1.76112761
C 0.03650871 0.68046995 -0.92512603
N -0.78191834 -0.51480149 -0.42542372
C -0.77491784 -0.29115481 1.05691720
C 1.11612625 0.59455952 0.10454287
O 0.35111921 0.30088885 1.35662058
H -1.75155002 -0.47667198 -0.74337756
H 1.63390959 1.54346864 0.26469082
H -0.41072874 -1.46472286 -0.59719078
H 0.40705447 0.43675608 -1.92676509
H 1.87012328 -0.22150764 0.07398407
