11

O 0.32469708 -0.919129 1.0507197
C 0.9007658 0.435256 0.7806032
N -0.62239707 -0.05810323 -0.81648517
C -0.59721005 -1.1909885 0.16501269
C -0.21358778 1.127138 0.06458079
O -1.352188 -2.1172063 0.1048215
H 1.1304268 0.88134974 1.7513924
H -0.0028193558 -0.31608635 -1.6033806
H 1.8554384 0.20276453 0.2610275
H -1.5779253 0.033366974 -1.1648142
H 0.15479973 1.9216384 -0.59347785
