11

C -0.038700327 0.49506372 0.70773095
C 0.5479938 0.24140635 2.0140672
C -0.66446126 -0.2981168 -1.5844983
C 0.33590737 -0.2843647 -0.4349462
N 1.6852797 -0.24875039 1.8831966
O 1.3489538 -0.97087574 -0.4953142
H -1.0921268 -1.3032978 -1.6494421
H -1.4770716 0.4245846 -1.466763
H 0.124633536 0.6517981 2.9387257
H -0.13096662 -0.1023603 -2.5175858
H -0.63944167 1.394913 0.6048291
