11

C 1.0101101 -0.8087968 -1.142717
C 0.21788318 -0.16312586 -0.05868851
C -0.8842304 0.63003045 -0.051971156
C -1.0925417 0.88175327 1.3319007
N -0.19790262 0.29279315 2.0768125
O 0.6315547 -0.36915436 1.2012112
H 1.0078117 -1.8974859 -1.0326022
H 0.58230925 -0.55482507 -2.1137002
H 2.0503838 -0.47033122 -1.118675
H -1.4586291 0.98382354 -0.8958871
H -1.8667493 1.4753186 1.8043166
