11

C -0.30075788 -1.3097228 0.23767391
C 0.8692739 0.77445775 -0.70116174
C -0.42007187 0.049052496 -0.29018292
O -1.4042414 0.053286742 -1.1143876
C -0.6857164 0.48041308 1.2265376
N -0.9350352 0.77614164 2.3207998
H -1.2490207 -1.8065652 0.4224292
H 1.2108147 0.34984952 -1.6479648
H 1.6506077 0.6785067 0.05999838
H 0.6256138 -1.8773347 0.3396305
H 0.63853323 1.8319148 -0.85337204
