11

C 0.51553248 1.07341302 -1.27248092
C -0.42493929 -0.77006702 0.16329315
C 0.46144770 -0.33088592 1.30141794
O -0.99537366 -1.83048435 0.13078540
C -0.64536898 0.22858444 -0.98658731
N 1.44718469 1.72472514 -1.47108871
H -1.48663713 0.87252788 -0.70587839
H 0.16329050 0.66004625 1.65977172
H -0.93921201 -0.32791517 -1.88096109
H 0.40905908 -1.05711670 2.11281994
H 1.49501654 -0.24282761 0.94890792
