11

N 1.024098 -0.4969186 -0.9202311
C -0.12847362 -1.3465643 -0.5710791
C -0.34240612 0.56783277 0.41338745
N -1.1379699 1.4441305 1.1743172
C 0.85089874 0.84021425 -0.17614526
N -0.91907704 -0.720685 0.19422188
H 1.0724611 -0.29966766 -1.9218339
H -1.4955977 1.0028646 2.0106616
H -0.6102918 2.2733257 1.407175
H -0.23383555 -2.35556 -0.9540122
H 1.9201939 -0.90897197 -0.6564616
