11

N -0.67029773 0.92456666 1.85886703
C -0.20483424 0.40099610 0.63860020
C -0.05265350 -1.28524942 -0.70797870
N 0.46443652 -0.08290175 -1.38562482
C 0.36910291 1.08443648 -0.38571536
N -0.44580698 -0.99574323 0.45995999
H -0.34039062 1.87217421 1.97476710
H -0.39616123 0.35304340 2.64645546
H 1.43421717 -0.18009727 -1.68964572
H -0.07546227 -2.25330209 -1.19600021
H -0.08214996 0.16207695 -2.21368506
