10

C 0.14476465 0.9892234 0.89855087
C 0.3648762 -0.48103306 -1.0981528
C 0.19496065 -0.40347096 0.35040137
C 0.5079446 -0.50998527 -2.2858703
N -1.6834296 -0.06081461 1.4777654
N -0.9305337 1.1826268 1.5498674
N -1.1023513 -0.92565787 0.818234
H 0.96609885 -0.9974678 0.85752964
H 0.6323838 -0.54443276 -3.3448467
H 0.9052862 1.7510123 0.77652085
