11

N 1.1905686 0.0866338 0.4919803
C 1.7806933 0.19047269 -0.67958903
C -0.2299867 0.026453318 -1.1894151
N -0.11162688 -0.019238796 0.14577457
C -1.1241968 -0.15124011 1.1717439
N 0.95426005 0.15900615 -1.7543901
H -2.106875 -0.18310733 0.6974443
H -1.0674948 0.7049892 1.847025
H -0.9581855 -1.07096 1.7359617
H 2.854696 0.2949448 -0.76690006
H -1.1818528 -0.03795374 -1.6996354
