11

N 1.27169505 -0.20751501 -0.08205482
C 1.29127766 -0.21873023 -1.39776569
C -0.49452859 0.09093990 1.55140168
N -0.03706048 0.00425315 0.18080196
C -0.71874148 0.10715758 -0.96965446
N 0.09147931 -0.03000321 -2.00112746
H 0.04204691 0.89400375 2.06083616
H -0.30479584 -0.85470300 2.06281849
H -1.56548586 0.30229844 1.55458954
H -1.78593969 0.28046779 -1.00932353
H 2.21005325 -0.36816911 -1.95052140
