11

C -0.8410129 -0.1389395 -0.71188414
C 0.40340695 -0.92829967 -0.28888142
O 0.65873075 -0.42880467 1.0097525
C 0.35285223 0.9339129 0.91968006
O -0.73556846 1.0694176 0.025806725
H -1.7640917 -0.6606591 -0.43184698
H -0.8648456 0.07565727 -1.7868875
H 0.24946538 -2.0073667 -0.22709459
H 1.2532674 -0.7179556 -0.955072
H 0.07235867 1.2985383 1.9113233
H 1.2154373 1.5044994 0.5351038
