10

O 1.1553141 1.258981 0.8454544
C 0.8221869 -0.08169441 0.51797557
C -1.3410491 -1.0274842 -0.121573895
C 1.2678936 0.8545153 -0.51774406
N -0.54387206 -0.34539163 0.6524637
H -1.0232599 -1.2576418 -1.1323459
H 0.5461922 1.3331301 -1.1831307
H -2.279508 -1.4025453 0.27071312
H -0.88258684 -0.1061817 1.58121
H 2.278689 0.77431273 -0.9130222
