10

O -0.76013035 0.37938103 1.8805091
C 0.90498227 0.06645479 1.2095993
C -0.12627934 -0.06868472 -1.6352762
C -0.40978676 -0.036504265 0.694342
N -0.90839624 -0.076434135 -0.51950413
H -1.9169096 -0.16919798 -0.600863
H 0.85420287 0.3759246 -1.5570811
H -0.40899348 -0.7094466 -2.4607248
H 1.4384998 -0.80428493 1.5849364
H 1.3328108 1.0427922 1.4040623
