10

O 2.007197 1.1514461 0.42948607
C 0.9604311 0.60065126 0.20403801
C 0.43288204 -0.8475658 0.23119025
C -0.91369057 -0.24488275 -0.23527925
N -0.2651806 1.063869 -0.1971358
H 0.92315096 -1.5155132 -0.47896546
H 0.42704985 -1.3004669 1.2256737
H -1.2375392 -0.5498923 -1.2338865
H -1.7419449 -0.35107842 0.47178766
H -0.5923554 1.9934331 -0.41690865
