10

O -1.7323223 -0.4870595 1.0461504
C -0.66894513 -0.21566364 0.28425285
N 0.21032082 0.7184391 0.63829106
C 0.9388588 -0.15113087 -1.3270708
C 1.2404432 0.7199641 -0.31507662
N -0.37132177 -0.73969215 -0.89948726
H 2.0896673 1.3758459 -0.18311296
H -2.2730627 -1.1312658 0.5675381
H 0.4805276 -1.435221 -1.2299117
H 0.08583407 1.3457837 1.418427
