10

O -1.82498046 0.81295217 0.04903134
C -0.61273749 0.24560818 0.07475200
N -0.01804181 -0.47135123 1.02599105
C 1.30423819 -0.91422419 0.67228432
C 1.40585836 -0.37676062 -0.58637619
N 0.23094454 0.33172818 -0.94336896
H -2.28282637 0.64937476 0.88283777
H -0.44069532 -0.68496942 1.91618477
H 2.21830464 -0.41955392 -1.29540216
H 0.01993574 0.82719580 -1.79593411
