10

O 1.0809512 -1.6869372 -0.45194575
C 0.2072036 -0.52105016 -0.06747064
N -0.32137898 -0.43885404 1.1146064
C -0.9591134 0.7781549 0.95358044
C -0.71537995 1.2695403 -0.31298682
N 0.08934775 0.38198072 -1.0004282
H 1.3647254 -1.440192 -1.3562003
H -1.5402946 1.2053404 1.7594954
H -1.0580889 2.18411 -0.77947354
H 1.8520278 -1.7320931 0.14082314
