10

O 1.9492828 0.38659495 0.57223946
C 0.49900994 0.24092737 0.42253473
N -0.5385803 0.5780573 1.1133407
C -0.9442644 -0.65771854 -0.7702619
C -1.5113536 -0.016652282 0.31500545
N 0.42085758 -0.46536866 -0.6857511
H 2.2221632 1.3109124 0.44037724
H -2.5566244 0.056750532 0.58343923
H 1.8667384 -0.21868204 -0.41716027
H -1.4072288 -1.214821 -1.5737637
