10

O -0.20722060 -1.49606431 -1.39187599
C 0.55176036 1.27483097 0.54021140
N 0.81227552 0.45256619 -0.53864764
C -0.17444006 -0.38386906 -0.37575801
C -0.55675374 0.80506097 1.21517130
N -1.04114023 -0.32898695 0.58823402
H 0.58173481 -1.29796050 -1.93721214
H -0.09951625 -2.35484551 -0.94593009
H -1.04060157 1.19260533 2.10143233
H 1.17390191 2.13666288 0.74437475
