12

N 1.7924278 -0.8842008 -0.9054027
C -1.4938428 1.0516012 0.72803146
N 0.24863459 0.82468474 -0.964465
C -0.8446236 1.3727812 -0.54291666
C 0.6483295 -0.37943947 -0.35440636
C -0.9578935 -0.21108921 1.2540209
N 0.017688105 -1.0075564 0.57942957
H -1.7203728 -0.812143 1.7590209
H 1.9902864 -1.8478867 -0.68755287
H 2.0251787 -0.55719167 -1.8289784
H -1.268011 2.1711724 -1.1497415
H -0.4378013 0.27926752 2.1129603
