12

N -0.29768390 0.17068771 -1.08837253
C -1.21226892 -0.84802602 -0.64310693
N 0.73158636 0.09913694 1.08192858
C -0.27127372 -0.57255497 1.58376764
C -1.22446570 -1.26692707 0.76184986
C 0.56949067 0.56046326 -0.22730754
N 1.46455182 1.55514674 -0.53760507
H -1.07028063 -1.77217426 -1.23691921
H -2.25371352 -0.57470228 -0.89596956
H -0.30252967 -0.70797759 2.66493526
H 2.27531019 1.61356319 0.05724050
H 1.59127691 1.74336460 -1.52044083
