10

N 0.60264844 -0.17313278 3.3048847
C 0.3510412 -0.029786931 2.1864731
C 0.041442726 0.13494352 0.7985903
N -0.65386134 1.121486 0.2858681
C -0.7005419 0.86367863 -1.0537037
C -0.0233998 -0.2911519 -1.3510704
N 0.45073742 -0.7533646 -0.15503943
H -1.2200612 1.5242862 -1.7348516
H 0.15578008 -0.8091287 -2.2793057
H 0.99621445 -1.5878295 -0.0018451102
