9

N -0.6921477 -1.7304276 0.72203225
C -0.040772997 -0.7585994 0.2650994
O -0.4610077 -0.008608019 -0.81488955
C -0.31085476 1.3527166 -0.7834565
O 0.058522437 1.9804535 0.15884231
C 1.2846427 -0.46653333 0.7872016
N 2.3500137 -0.28847957 1.1932613
H -1.5831106 -1.8279132 0.23602591
H -0.605285 1.7473912 -1.7641166
