11

C 2.24079368 -0.08462132 -0.12521537
C 1.04070194 -0.54212312 -0.39169248
N -0.01599032 -1.07846336 -0.71782789
C -1.37117077 0.58443920 0.39914629
N -1.25387588 -0.47871567 -0.58296456
H -2.41886007 0.88662072 0.45744902
H -1.01707594 0.28951194 1.39747124
H -0.77961239 1.44319549 0.06771315
H -1.92716138 -1.22076593 -0.46567142
H 2.78004293 0.50496627 -0.85960445
H 2.72220779 -0.30404458 0.82119641
