10

O 1.1968067 0.6255594 0.90025544
C 0.63293695 -0.8539802 0.25761706
N 1.2520616 -0.4784587 -1.0056889
C -0.6915597 0.7376433 -0.4806947
C 0.84120536 0.6173785 -0.37585852
N -0.77843547 -0.5991582 0.18487765
H -1.2622784 -0.60372037 1.074253
H -1.0644876 0.7119986 -1.5052707
H 1.0182787 -1.689366 0.8398183
H -1.1445286 1.5321038 0.11069146
