11

C -2.0166967 -0.020008327 -0.21952769
N -0.06617674 -1.0233685 -0.8843571
C 1.547183 0.08448355 0.47153357
C -0.9166096 0.61678845 0.35781926
N 0.18662928 -0.062426403 -0.021498518
N -1.3937192 -1.05136 -0.9628902
H -2.127151 -0.3566356 -1.5420438
H 1.6780715 -0.5334003 1.3625686
H -0.8412026 1.4563342 1.0357108
H 2.2290556 -0.24277297 -0.31285116
H 1.7206165 1.1323661 0.71553624
