11

C -0.96168816 -0.77309245 -0.16780748
N 0.14805448 0.01145723 -0.06524881
C -2.01625490 -0.18582597 0.53680827
C 1.48141964 -0.21424195 -0.59001515
N -0.07033739 1.08304241 0.65784460
N -1.34236862 0.92197976 0.98562049
H 2.14039650 -0.57132466 0.20476350
H -1.73853181 1.65852422 1.55506886
H -0.92617953 -1.68734307 -0.74239256
H 1.41745184 -0.96426422 -1.37965805
H 1.86803826 0.72108841 -0.99498386
