11

C 1.5602479 -0.3436002 0.19022879
N 0.16050492 -0.02056372 -0.011140305
C -2.0946283 -0.019162102 -0.011973087
C -0.94636935 -0.7408986 0.32577547
N -1.4699111 1.0897111 -0.5247277
N -0.14747621 1.1356226 -0.5470831
H -1.9370655 1.9006041 -0.9093493
H 1.6433235 -1.4171796 0.36540556
H 2.1217368 -0.06717732 -0.7023165
H -0.8396458 -1.7190515 0.77197057
H 1.9492834 0.20169544 1.0532095
