10

C -0.93157077 0.38092956 2.3669178
C -0.47546393 0.2112021 1.2660017
C 0.06597299 0.007802527 -0.03478798
C 1.3396909 0.11992933 -0.550201
N 1.3050393 -0.19898635 -1.866813
N 0.08861923 -0.50099874 -2.2004058
N -0.66612446 -0.3814256 -1.1107537
H -1.3278674 0.5330739 3.348746
H 2.2552085 0.40470257 -0.054057695
H -1.6535043 -0.57622933 -1.1646464
