10

C 2.05852244 0.71352165 1.29854293
C -1.18468898 -0.18230064 0.26906867
C 0.12381613 -0.05154135 -0.34218812
C 1.16653560 0.36801134 0.57171863
N -3.03709847 -0.88965343 -1.14601147
N 0.31292617 -0.29079742 -1.58567099
N -2.18169050 -0.56170413 -0.48283481
H -1.40755642 0.01883234 1.30531178
H 2.85598624 1.02046851 1.94029694
H 1.29324786 -0.14483689 -1.82823364
