11

N -0.8772709 0.62454224 1.5941033
C -0.5128832 0.1197421 0.34355906
C 0.019996041 0.91099 -0.6879199
N -0.19116436 -1.2777014 0.2950201
C 1.4720752 -0.5991301 -1.1440715
N 0.9084748 -1.4687666 -0.31251803
N 0.73478836 0.4276616 -1.6838547
H -1.6279905 0.112757735 2.0346658
H 2.4775345 -0.80698276 -1.488454
H -1.0293516 1.6235253 1.5839524
H -1.3742082 0.33336192 -0.53448266
