11

N -0.6944826 0.4055815 1.983677
C 0.0211544 -0.26103285 1.0148474
O 0.73552024 -1.2131205 1.2441782
N -0.122463614 0.28585047 -0.25194356
C 0.5260878 -0.23290564 -1.3640175
N 0.40233663 0.34860995 -2.4860675
H -0.73109096 -0.08565872 2.8648968
H -1.5459126 0.87927485 1.72387
H -0.622459 1.1528516 -0.39454395
H 1.099338 -1.1326171 -1.1388402
H 0.9319719 -0.14683348 -3.1960564
