10

C -0.058399845 0.19235232 -0.5851438
C -1.1055529 0.791802 0.3230759
O -1.3077412 1.973604 0.44989613
C 0.889275 -0.72571313 0.19091679
H -1.7001561 0.04430328 0.89423764
H 0.3343386 -1.5147438 0.71248573
H 1.6005787 -1.2079973 -0.48538545
H -0.5902521 -0.3901516 -1.3502673
H 1.4611924 -0.1667456 0.9385117
H 0.47671747 1.0032898 -1.0883273
