10

O -1.2628565 -0.8594243 -1.6282995
C -1.2217605 -1.2296933 -0.47956362
C 0.6884087 0.32315928 0.1205298
N 1.266974 -0.73092896 -0.21632487
O 0.11203627 2.5270069 0.6622887
C 0.88696074 1.7899742 0.105012625
C -0.113744676 -0.8394856 0.44662002
H -0.13945365 -1.2322195 1.4603392
H 1.7869049 2.130072 -0.43256137
H -2.0034692 -1.878461 -0.03804098
