10

O -2.3848035 0.9544141 0.40681636
C -1.7670803 -0.058717817 0.6268205
C -0.35662252 -0.22399254 0.21181707
N 0.27756855 -1.340103 0.46407914
O 1.5358933 -1.1738787 -0.032206576
C 1.636708 0.049780596 -0.57768863
C 0.4690716 0.71811736 -0.46228638
H -2.210804 -0.9251988 1.1522524
H 2.6016517 0.28877687 -1.0041425
H 0.19841723 1.710802 -0.7854614
