11

N 1.164341 1.5728183 -0.13408107
C 0.48190075 0.42967942 0.13245308
N -1.4895153 -0.3710849 -0.77545595
N 0.004895164 -0.4471711 -0.9414688
C -0.67877555 -1.1624421 0.12885396
C -0.05089532 -0.26566827 1.156867
H 1.6449196 1.5989413 -1.0199037
H -1.8264263 -0.9853745 -1.523435
H 1.6526663 2.0090294 0.63328075
H -0.72847724 -2.2483704 0.12332716
H -0.17463328 -0.1303576 2.2195628
