11

C -0.43773016 -1.3806554 -0.5675683
C -0.51259625 0.014574707 0.037094116
C 0.8425996 0.6437958 0.22617216
O 1.8979037 0.14295514 -0.054876957
C 0.8100546 2.0106936 0.8178549
N 0.77392024 3.0687459 1.27467
H 0.04871078 -1.3588351 -1.5471259
H -1.4450054 -1.7882023 -0.6890802
H 0.13560916 -2.0567777 0.072521664
H -1.0086155 0.0073313145 1.0173423
H -1.1048506 0.6963743 -0.5870038
