9

N 1.28308257 0.26666681 -0.47711912
C 0.12911086 0.90722349 -1.01133322
C 0.80738469 -0.50416258 0.43332436
C -0.68256885 -0.38330384 0.51774970
N -1.00357067 0.59465655 -0.50802973
H -1.19625421 -1.33090530 0.31902766
H 0.24856605 1.62763374 -1.81431747
H 1.43751830 -1.14486073 1.04129973
H -1.02326849 -0.03294822 1.49939791
