10

O -0.46656387 -1.56415252 -1.28679767
C -0.26883227 -0.45860906 -0.55434773
C 0.80009975 0.30390412 0.07828922
O -1.21396949 -0.20859135 0.44066826
C -0.22699655 0.59243196 1.15889409
O 0.16685241 0.71840570 -1.16415979
H -0.11793383 -1.40061013 -2.17246684
H -0.55730692 1.62829303 1.26050190
H 1.87956348 0.25061069 0.11440797
H 0.00508715 0.13831786 2.12501039
