12

O 1.2837383 0.22961691 0.77426964
C -0.39164585 1.1314725 -0.68829113
C -0.80464447 -0.89146566 0.82052267
O 0.51659214 0.023185592 -1.6383826
C -0.11910352 0.44898158 0.64340836
O -0.18601923 -1.9253933 0.97688603
H -1.9091594 -0.88324875 0.74801606
H 1.2370403 -0.10952561 -0.95569646
H 1.3687875 -0.64566034 1.1959615
H -1.3974037 0.83012563 -1.0205806
H 0.89109933 0.65085495 -2.2706394
H -0.4892812 1.1410565 1.4145257
