12

O 1.8304851 1.0588404 -0.5872833
C 1.3131971 -0.036217537 -0.5777778
C 0.33512634 -0.44623196 0.510989
O 0.1644339 0.6411472 1.3905333
C -1.0016283 -0.88510966 -0.03126027
O -1.6170377 0.67051244 -0.62826335
H -1.1660488 1.2556982 0.02235415
H 0.7580561 -1.3328637 1.0195643
H 0.912067 1.2382329 1.2150508
H -2.161167 0.03546023 0.016300853
H 1.5095391 -0.78666097 -1.3645922
H -0.877023 -1.4128076 -0.98561555
