12

O 0.24393024 -1.93715652 0.94019760
C -0.56870067 -1.03908892 0.84397572
C -0.16317614 0.40994125 0.65959546
O 1.26107171 0.46185759 0.70468941
C -0.64112495 1.04379194 -0.63782311
O 0.40224646 0.14176749 -1.66427228
H -1.65687188 -1.24177535 0.83505427
H 1.53678802 -0.38599374 1.10003267
H -0.61091888 1.00878338 1.46677308
H 1.17488458 0.14122532 -1.02728859
H 0.61119613 0.83724769 -2.30194025
H -1.58932451 0.55939988 -0.91899389
