10

N -0.58942368 0.99489936 -0.94588148
C -1.09629617 -0.65474336 0.37944427
N 0.18353622 -0.53030856 0.56167245
O -1.65000898 0.18078241 -0.47110356
C 0.43874903 0.51849539 -0.28554934
O -1.90957430 -1.52751883 0.94776457
N 1.69755422 1.04874270 -0.37693541
H 1.85818237 1.63543019 -1.18015701
H -1.36675385 -2.05348259 1.55257671
H 2.43403519 0.38770398 -0.18183122
