10

N 0.22571385 1.7671635 0.39226246
C -0.20258452 0.4796704 0.16446461
N -1.4024376 0.05098321 0.35845894
O -1.3376974 -1.3356094 0.10303092
C -0.07905812 -1.6978452 -0.259196
O 0.2818055 -2.8109257 -0.5202078
N 0.6459672 -0.51647455 -0.25213385
H 0.7512274 2.1735775 -0.36972043
H -0.53291667 2.3684187 0.68326294
H 1.6499804 -0.47895777 -0.3002218
