10

N -0.21709031 -0.42761305 -0.63277775
C -0.9824315 0.6214826 -0.6504768
N 1.3702894 -1.1132447 1.0033069
O -0.85147256 1.458117 0.3550208
C 0.46406943 -0.19954726 0.53637385
O -1.8779334 0.9497152 -1.5650729
N 0.15837808 0.9008236 1.1812577
H 1.995077 -0.771447 1.7160364
H -1.8718075 0.23823208 -2.2214599
H 1.8129209 -1.6565186 0.2777913
