9

N -0.07137899 1.82635813 -0.38458459
C 0.12724455 -0.33408213 -0.13641944
C -0.37179479 1.41756703 0.81174375
N -0.27483504 0.07255309 1.03653074
N 0.44753624 -1.60000770 -0.50261199
O 0.27202347 0.63002613 -1.04040725
H 0.43282495 -1.81970562 -1.48473323
H 0.11964431 -2.31481285 0.12629204
H -0.68126454 2.12210400 1.57419006
