9

N -0.8583071 -0.7927025 -1.8911793
C -0.22668482 0.32301044 0.30809778
C 0.23643105 -1.0599104 -1.3035845
N 0.08158672 0.907537 1.4963578
N 0.7177736 -0.5701499 -0.15801226
O -1.2762343 0.5740326 -0.29575306
H 0.99650306 0.7688551 1.8848878
H -0.4966237 1.6649278 1.8180602
H 0.8255554 -1.8155999 -1.8588747
