9

N -0.88601387 -0.5763251 -1.2238805
C 0.2352523 -0.14730874 -0.55512345
C -0.052183773 0.36906278 0.78827345
N 0.9553686 0.80484015 1.4879204
N 1.8376482 1.1742661 2.0853362
O 1.3487853 -0.15841451 -1.0445293
H -0.7043361 -1.0915416 -2.0730345
H -1.704634 -0.8477872 -0.7031914
H -1.0298865 0.4732082 1.2382292
