12

O -1.3348459 -1.4144895 1.7411427
N -0.39412254 -0.36700577 1.7201905
C -0.056911197 -0.13585487 0.5121365
C 0.8515314 0.9512439 -0.0025552763
N 0.6395024 0.5157581 -1.4055071
C -0.32506388 -0.70980823 -0.8018096
H 0.23880932 1.1433353 -2.0907927
H 0.44163582 1.9528908 0.1480201
H -1.3154354 -0.74713045 -1.2469608
H 0.8452232 -0.5808064 -1.5585935
H 1.9009495 0.92913264 0.30129275
H -1.4912726 -1.5372655 2.683436
