10

O 1.8356938 -0.16103192 0.7735389
C 1.1365027 -0.81060475 0.03117938
C -0.116495706 -0.26674306 -0.5607016
C -1.0617226 0.38715205 0.3941279
N -0.29289487 1.18028 -0.5356909
H 1.3969088 -1.8496863 -0.24923281
H -0.50737363 -0.78317857 -1.4339993
H -2.1278327 0.3251941 0.19320016
H -0.77323323 0.39446545 1.4439869
H 0.51044744 1.5841529 -0.056408703
