11

O -2.01206 0.989417 1.3779294
C -1.0795498 0.6113003 0.7247163
N -0.9763517 -0.54984003 -0.016071653
C 0.40721047 -0.807856 -0.35707337
C 0.9428278 0.63037986 -0.32558224
O 0.0805797 1.3086334 0.58922327
H -1.6087035 -1.2933218 0.23720029
H 0.9068561 -1.4435455 0.3841732
H 0.51270723 -1.2643158 -1.3449457
H 0.8584954 1.1096718 -1.3058913
H 1.9679883 0.7094767 0.036321726
