11

O 1.092952 0.64407104 0.9963709
C -0.17420302 0.6370468 1.4863827
N 0.19460377 -0.15248117 -0.89817166
C 1.2796069 0.49686387 -0.3634772
C -0.85089606 -0.7063106 -0.08813773
O 2.273647 0.84045935 -0.9355137
H -0.778257 1.3731453 0.91873586
H -1.8407773 -0.31677267 -0.33401632
H -0.8404351 -1.8035134 -0.086935654
H -0.6979374 -0.52076054 1.1417783
H 0.34169614 -0.49174783 -1.8370156
