10

N 0.60471636 -0.8080352 1.505437
C 0.014259865 0.16879272 0.74281025
O -0.39904025 1.2171783 1.1876979
N -0.103556 -0.1762514 -0.60515076
C -0.64011824 0.6733375 -1.5603971
O -0.76814777 0.34661546 -2.714756
H 0.82946074 -0.51376957 2.443744
H 1.2484939 -1.4568945 1.0792924
H 0.13561295 -1.1011322 -0.9321592
H -0.9216816 1.6501586 -1.1465182
