10

N 0.37181935 -0.27481204 0.8352682
C -0.28787723 -0.32523984 -0.3127603
O 0.9120872 1.9586095 0.46300924
N -0.86887 -1.4785606 -0.67964417
C 0.9413767 0.9147927 1.1378402
O -0.44370613 0.657966 -1.1637592
H -0.7890579 -2.2725227 -0.069808066
H -1.3618977 -1.5372252 -1.5537888
H 0.046280596 1.4351449 -0.753097
H 1.479845 0.9218473 2.09674
