9

N 0.81348870 -1.96642552 -1.41264536
C 0.34214538 -1.08078245 -0.68986169
C -0.06736354 -0.04479838 -0.04011833
C 0.08164499 1.03697015 0.91901782
N -1.19838423 0.78578128 0.22175790
H 0.67932282 1.89331853 0.62160375
H 0.05729880 0.82681227 1.98716999
H -1.33110210 1.45870401 -0.53210273
H 0.62294890 -2.90958004 -1.07482135
