9

N 1.1089854 -0.9845578 -2.1836905
C 0.8969825 -0.513621 -1.1508259
C 0.61646706 0.052654598 0.15473557
C -0.71034664 0.69211704 0.37766626
N -0.3912769 -0.57551 1.0064322
H 1.4905951 0.42817387 0.67850167
H -0.7666703 1.5447341 1.0488218
H -1.404546 0.70724314 -0.45852998
H -0.8401905 -1.3512341 0.5268889
