10

O -1.5575384 1.2182235 -0.36893407
C -0.6155955 0.32471076 0.0060855574
N -0.87162167 -1.0601494 -0.06676137
C 0.39218032 -0.5525037 -0.6597081
C 1.2506093 -0.06608168 0.48452407
N 0.38831985 0.6679539 1.0874254
H 2.26764 -0.27166477 0.81227833
H -0.7458576 -1.5521582 0.8171785
H -1.1440625 2.0904977 -0.42585367
H 0.63592666 -0.798828 -1.6862345
