12

O -1.06554097 -0.33998905 0.24115800
C -1.01731384 1.02025364 0.31706165
C 1.29973242 1.12951695 0.78272003
O 0.64863702 -1.69586787 -0.54752727
C -0.49299982 -0.97103667 -0.89278562
O 0.08611553 1.59199570 0.70392266
H -1.28253535 -1.61932280 -1.28993100
H 0.37271563 -2.39032129 0.07037414
H 1.53182918 0.10847662 0.51826091
H 2.02214711 1.87502793 1.08463417
H -1.91425149 1.52605616 0.65486973
H -0.18853521 -0.23478948 -1.64275707
