12

O -1.2608956 -0.6594343 1.2330363
C 0.12830126 -0.48708326 1.1824633
C 0.58487976 0.7038782 0.3439106
O 0.85662055 0.402909 -1.0450385
C -0.14906676 0.026671354 -1.8246036
O -1.2891893 -0.19056393 -1.4902492
H -1.5810518 -0.631823 0.31778362
H 0.66110456 -1.3853904 0.8323902
H 0.45099366 -0.29672897 2.2135942
H 1.5493876 1.0753915 0.69575167
H -0.16205345 1.500746 0.39931276
H 0.21096973 -0.05857235 -2.858351
