15

N 1.7360419 0.57889074 -1.327066
C -1.2976391 -0.9336967 0.24393734
O 1.6752231 -0.35924113 0.741521
N -0.02562633 1.1177391 0.09345153
C -1.0291166 0.44095978 0.9135542
C 1.0392457 0.30922335 -0.20653561
O -0.097043864 -1.455286 -0.18565601
H 1.2497493 0.90242296 -2.1453564
H 0.9989811 -1.1467409 0.76450104
H -2.0035331 -0.7913224 -0.59762263
H -0.42553598 1.5803429 -0.710152
H -1.8113095 -1.5754298 0.97781837
H -0.6057307 0.30229035 1.9136698
H -1.9117924 1.082644 0.99739575
H 2.5080862 -0.052796196 -1.4734606
