15

N -0.7874553 -0.81449103 -0.07845603
C -0.2746798 1.4167955 0.39379415
O 0.849701 0.6005613 0.66956055
N 1.256421 -0.67975074 -1.3136988
C 0.65364933 -0.6397493 -0.0020498028
C -1.4236994 0.4046824 0.42057478
O 1.2732973 -1.6455892 0.71919036
H -1.0653194 -1.049554 -1.0230588
H 1.2107848 0.23385619 -1.7507509
H -0.34016228 2.197557 1.1547583
H -2.272742 0.7062868 -0.20081702
H -1.7772752 0.25436145 1.4464802
H 2.2322571 -0.94427776 -1.2269824
H 0.6397143 -1.9290429 1.3887902
H -0.17449129 1.8883544 -0.59733504
