12

N -0.2705679 -0.012679256 -2.0510974
C -0.15716757 -0.039761517 -0.65378165
C -1.0308328 -0.3132872 0.33366445
N -0.35610962 -0.098080635 1.549071
C 0.93443596 0.3332003 1.3312583
O 1.7715821 0.65843385 2.1503308
N 1.0520109 0.31223312 -0.054089792
H 0.28945842 -0.72897094 -2.4982264
H -1.2344483 -0.1216031 -2.3395545
H -2.048619 -0.665998 0.2925535
H -0.76582503 -0.089337476 2.465806
H 1.8160825 0.7658508 -0.5259343
