11

N 0.18489584 -1.7067176 0.20533079
C -0.3221194 0.49758714 -0.72463036
O 0.49825022 0.27991396 1.3162156
C -0.666764 0.79348385 0.7209686
C 0.9085864 -0.595482 0.24438569
O 1.8307129 -0.18717967 -0.51708245
H -0.7756037 1.8666772 0.9110944
H 0.2892789 1.2216374 -1.2507832
H 0.54070127 -2.246143 -0.59144586
H -1.5623194 0.23983243 1.0221277
H -0.925619 -0.16360949 -1.3361812
