11

N -0.51011418 -0.71120492 -0.65513566
C 1.02151897 0.56281088 0.46873740
O 1.55799802 -0.53803788 -1.66481824
C 0.78382316 -0.29260409 -0.76946962
C -1.18844775 -0.07487165 0.45078758
O -0.14030999 0.41718823 1.26153095
H 1.89898589 0.22327724 1.02527367
H -1.78058482 -0.78211072 1.03835557
H -0.98434116 -1.15853803 -1.42336552
H 1.17988896 1.60765628 0.16235385
H -1.83841632 0.74643482 0.10574980
