11

O -1.6459271 -1.5736446 -1.2004244
C -1.0269047 -0.6313294 -0.7550709
C -1.2384957 0.63449025 -0.16079031
N 0.21637304 0.8326475 0.10483553
C 0.52844507 -0.42334613 -0.6034008
C 0.8900567 -0.26659876 0.8302331
H 0.72511625 1.6858329 -0.111105904
H -1.9516343 0.97042274 0.58034253
H 1.3003095 -0.42592388 -1.3674585
H 1.930796 -0.07639665 1.0869088
H 0.27186477 -0.72615385 1.5959313
