11

O 1.572012 2.142512 0.027992235
C 0.46584544 1.7534767 0.3270299
C 0.33916363 -1.8037399 -0.41747013
C 0.042620566 0.36940488 0.11578964
N -0.93322724 -1.628951 0.1333656
C -1.1148131 -0.28869185 0.4102525
N 0.88761574 -0.5605711 -0.44998848
H -0.7485305 -2.1705167 -0.9822732
H -0.2940044 2.4231784 0.7724096
H -2.02978 0.09609726 0.83899677
H 1.8130978 -0.33219916 -0.77610445
