11

C -0.08664293 0.004207333 -0.71796066
C 0.79467183 -1.1166217 -0.25525615
O -1.468479 -0.053595968 -0.35938412
C -0.94510716 1.1021408 1.8451365
C -0.7247497 0.99216044 0.1639063
N 0.23450655 0.93045825 1.6956376
H 0.6753748 -1.9768881 -0.92112476
H 1.8432512 -0.8023821 -0.2769058
H 0.5408469 -1.4133188 0.7649045
H 0.07204411 0.33784184 -1.7462015
H -0.9357169 1.9959979 -0.19275215
