10

C -0.8904425 0.21607554 0.37725535
C 0.42574593 -0.24730448 0.94487226
N -1.1895137 -0.5422233 -0.840054
C 0.4069614 0.96269953 0.19695874
N 1.0362784 -0.23977485 -0.41340676
C -0.021615116 -0.77795315 -1.263245
H 0.23912567 -1.3222185 -2.1649969
H 0.8718651 -0.5785612 1.8720843
H -1.7099841 0.57893366 0.9857963
H 0.83157915 1.9503266 0.3047358
