10

O 1.7138977 -1.7771316 0.8254653
C 1.1527846 -1.4665225 -0.19807482
C 0.1980752 -0.33784539 -0.26188576
N -0.39147797 -0.03850308 -1.3915691
O -1.1923364 1.0309767 -1.119403
C -1.0680523 1.3580009 0.17923982
C -0.19869085 0.52948254 0.7942611
H 1.3151268 -2.001055 -1.151431
H -1.6643012 2.2006972 0.5026941
H 0.13497445 0.50190026 1.8207034
