10

O 1.04778851 -1.23179269 -2.26447863
C -0.31351295 -0.77784153 -0.36281244
C -0.54837385 1.53255531 0.99841368
C -0.40709466 0.28832094 0.59801102
O -0.20304694 -0.95118356 1.08714309
C 0.98411016 -0.96174133 -1.09239770
H -1.20462614 -1.20158907 -0.82262829
H -0.73712458 2.31330220 0.26850540
H -0.49880257 1.79043149 2.04925159
H 1.88068298 -0.80046159 -0.45900789
