11

N -0.97839665 -1.7059512 0.59779984
C -0.3479895 -0.5387295 0.15244931
C 0.9658381 -0.16172504 0.2662159
N 1.0413396 1.0508053 -0.4016539
C -0.193685 1.3246369 -0.87577486
N -1.0595155 0.39319122 -0.55707335
H -1.9812554 -1.6064036 0.5162858
H -0.7288945 -1.9691174 1.5405074
H 1.8283448 -0.6207774 0.720996
H 1.8656492 1.6148818 -0.5145721
H -0.41143525 2.219189 -1.44518
