11

N -1.1565646 1.45874 -0.4095454
C -0.5081286 -0.9439678 -0.16835384
C 2.00473 0.22003454 0.7831557
N 0.41085747 -1.7938665 0.08576719
C -0.21107724 0.48507065 -0.07434036
N 0.98962563 0.75215876 0.29289466
H -1.533891 -1.1982853 -0.45552918
H 0.05306801 -2.7453587 0.047531296
H 2.8332136 0.069391884 0.07818443
H -2.0549285 1.3033046 0.025411403
H -0.826905 2.392778 -0.20517586
