9

N -0.25155458 0.16731723 1.3003657
C 0.4400969 -0.2791885 -0.81262136
C -1.1348014 0.6870192 0.41762778
N 0.68390447 -0.41034186 0.6311629
C -0.8335099 0.48121828 -0.94094026
H -1.9841347 1.2139864 0.8391718
H 1.2708784 0.25796613 -1.2843248
H 1.4450308 -0.8493066 1.1262531
H 0.36408997 -1.2686702 -1.2766951
