9

N 0.17910325 -1.00116126 -0.00840428
C 0.10100567 0.80206547 1.13166751
C -0.27984777 1.31078436 -0.12331992
N 0.35885550 -0.52502914 1.17379425
C -0.22424846 0.06498296 -0.93673623
H 0.33730032 -1.98344664 -0.17334899
H 0.21631938 1.34529267 2.06353005
H 0.50985355 0.15312373 -1.74578665
H -1.19834140 -0.16661242 -1.38139570
