9

N -0.11956354 -0.847072 0.4516414
C 0.35932204 0.37716118 0.8593519
C 0.2754881 1.1774404 -0.2473307
N -0.23737994 0.48191562 -1.3116224
C -0.46351093 -0.7277449 -0.8598409
H -0.2008783 -1.6767732 1.0148413
H 0.7015669 0.54897803 1.8679844
H 0.5557549 2.217526 -0.34427047
H -0.8707992 -1.5514314 -1.4307545
