10

O -0.5652873 -1.8809534 -0.78487575
C 0.21183251 -0.9920481 -0.044911668
C -0.31692162 0.4173818 -0.14772224
O -1.2934852 0.68880016 -0.81310725
C 0.40336302 1.5274242 0.6070771
O 1.3775771 1.3180921 1.2822421
H -1.2628615 -1.3550917 -1.2063991
H 0.23790947 -1.2676052 1.0208521
H 1.2592437 -0.9853668 -0.38698268
H -0.051370014 2.529367 0.47382766
