10

O 0.50345169 -2.20914133 -0.39601251
C 1.15821058 -1.22484640 -0.16550136
C -0.97853962 0.26665244 -0.01676355
O -1.38983278 1.57690674 0.21032428
C 0.52140173 0.13743518 0.06413950
O 1.22989904 1.09215970 0.30648267
H -1.29635470 -0.08713007 -1.01014227
H -1.42196176 -0.42736998 0.71435715
H 2.26415661 -1.21923850 -0.09409049
H -0.59043062 2.09457228 0.38720685
