10

O 0.93066955 0.9511371 -1.978885
C 0.043788027 -1.2380627 0.2818883
C -0.46629587 0.76529974 -0.020254934
O 0.330402 -1.0703316 -1.0643501
C 0.37401235 0.31345406 -1.1302705
O 0.0472431 1.6869708 0.7951744
H -0.91538644 -0.29429746 0.4619
H -0.6796173 2.145904 1.2386899
H -0.56005377 -2.1298237 0.4648517
H 0.8952384 -1.1302503 0.9512562
