10

O 1.85359012 -0.84863967 0.22464268
C 0.58098436 1.00168564 -0.21653232
C 1.09472542 0.04681812 0.81468932
O 1.29702474 1.92124355 -0.53600710
C -1.44672758 -0.21053771 -0.21225736
O -0.69181370 0.93875789 -0.61049391
H -2.46397672 -0.02054176 -0.55656524
H -1.06086635 -1.11564553 -0.69403139
H 2.27347820 -1.38807339 0.91256347
H -1.43641879 -0.32506709 0.87399183
