10

O -0.01555731 -1.3763696 -0.95729184
C -0.40534896 -0.3868592 -0.051116493
C 0.6833157 0.007676208 0.94410306
O 0.6316762 1.3857751 0.47419927
C -0.2605885 1.0743742 -0.5043067
O -0.68830043 1.7749064 -1.3658417
H -0.6542539 -1.398659 -1.6806812
H -1.3825337 -0.58377165 0.4104132
H 1.6516976 -0.443537 0.7252884
H 0.439893 -0.0535354 2.005234
