11

N 1.1970011 -0.57480603 0.9265468
C -0.11154733 -0.20796482 0.9598815
C 0.72338915 0.20248 -1.1144118
N 1.7459716 -0.28298286 -0.2814004
C -0.45944512 0.20686172 -0.30345097
N -1.7233695 0.5559439 -0.7805067
H -0.6833286 -0.2796443 1.8775072
H -2.303294 1.0473006 -0.113043435
H 1.4724 -0.92945063 -1.2249871
H 1.7949969 -0.8132358 1.6984975
H -1.652774 1.0754983 -1.6446323
