10

N -1.3193538 -0.6408153 -1.1628163
C -1.2100177 -0.7460302 0.08928563
O -0.18027937 -0.21733725 0.7752143
C 0.76781005 0.47489402 -0.030495873
C 1.822111 0.98231435 0.8532928
N 2.6769104 1.399717 1.5118651
H -2.1614275 -1.1098471 -1.4892689
H -1.8820784 -1.2501417 0.7894065
H 0.28886834 1.3054439 -0.5573169
H 1.1974577 -0.19819741 -0.7791662
