10

N 0.5074585 -0.67187667 1.1105195
C 1.1647446 0.39232638 0.7891665
O 0.85346335 0.95463747 -0.29453543
C -0.56097144 -0.42814866 -0.6986886
C -1.4218162 0.6590013 -1.1148771
N -2.1799705 1.4657184 -1.4537348
H 0.70459527 -1.1782941 1.9665987
H 0.10798411 -0.7954872 -1.4674958
H 1.9728442 0.81554294 1.397965
H -1.1483318 -1.2134198 -0.23491791
