11

N 1.17883011 -1.68942834 0.82341602
C -0.86141388 -0.41731167 0.31693642
C 0.64721580 -0.66827780 0.30482361
N 1.28758821 0.40684723 -0.35866848
C 0.34247499 1.23458171 -0.66059954
N -0.91683705 0.92633550 -0.24030187
H -1.38332744 -1.14281388 -0.31702501
H -1.26549838 -0.46708138 1.33160738
H 2.18863156 -1.63991075 0.69787934
H -1.73311256 1.29510697 -0.69940671
H 0.51544838 2.16195246 -1.19866097
