10

N -0.17461553 -1.3644727 -0.10875847
C -0.95306736 -1.0250634 0.8812141
C 0.008795216 0.9037717 0.47273415
O -0.9475613 0.22558305 1.318076
C 0.3501778 -0.13632822 -0.44906476
N 0.8425021 0.42114702 -1.5327829
H 1.3206404 -0.13275087 -2.236321
H -1.6459057 -1.6969064 1.3779341
H 0.39130616 1.5044439 -0.8244602
H 0.8077284 1.300576 1.1014292
