10

N -0.77142220 0.61143548 -0.26865383
C 0.68378100 -0.81030776 0.52547678
C -1.33436383 -0.02757185 0.74245429
O -0.51919286 -0.87928313 1.25536553
C 0.56928788 0.15705478 -0.48403218
N 1.24550728 0.69463534 -1.44242046
H -2.32973486 0.10033761 1.14008452
H 1.46585438 -1.46546611 0.86387665
H -1.18429985 1.32635848 -0.84772714
H 2.17458278 0.29280705 -1.48442425
