10

N -0.7029267 0.7253436 0.14453775
C 0.5566037 0.32689562 -0.40788922
C -1.2839961 -0.2785733 0.7786375
O -0.554092 -1.3356909 0.7263295
C 0.6056048 -1.0165989 -0.007104167
N 1.2401799 1.2076961 -1.0572641
H -2.2319777 -0.2809869 1.2949312
H -1.0550374 1.6632673 0.02953368
H 1.3175133 -1.8149271 -0.113142274
H 2.1081278 0.8035744 -1.3885701
