11

N 1.10954907 -0.50947582 -0.94164238
C -0.07806829 -0.44181463 -0.57721234
C 2.17894324 -0.30463400 -0.06041516
N 1.63976602 0.20413630 2.26623905
C -1.33830116 -0.36654910 -0.23130892
N -2.11215401 0.81484121 -0.17228515
N 1.94391854 -0.03005634 1.19001347
H -1.83393244 -1.27286868 0.10634660
H -3.04165259 0.67414459 -0.54393695
H 3.19944759 -0.36822974 -0.40614925
H -1.66751608 1.60050624 -0.62964909
