11

N 1.1844686 1.3065891 -0.7743758
C -1.4359231 -0.68597716 1.136675
C 0.51084894 0.16955075 -0.33083326
N -1.5763942 -1.0173559 -0.1835936
C -0.7305582 -0.25287175 -0.8437104
N -0.21892732 -0.51212746 1.667497
N 0.8325418 -0.30344492 0.98953646
H 0.87966394 1.5990474 -1.693292
H -2.2776253 -0.7316219 1.8161094
H 0.6416688 -0.80659235 -1.0933106
H 2.1902359 1.2348039 -0.69070214
