10

O -0.27634546 -0.81495976 -1.7583307
C -0.83159363 0.25326452 0.4284971
C 0.008079306 -0.3240199 -0.5319066
N 1.2435815 0.2925791 1.2511723
N -0.011463286 0.5872363 1.5732358
C 1.2733651 -0.2860491 0.044680327
H -1.2250884 -0.7582851 -1.9178307
H -1.9112934 0.23540424 0.53248346
H -0.47168672 1.443397 0.7725266
H 2.2024448 -0.6285673 -0.39452744
