11

O 0.09093338 0.08132435 -0.82786876
C -1.2992266 -0.29821688 -0.6722858
C -0.4380124 -1.2138565 0.051415324
C 0.7450241 0.3978491 0.8180498
O 1.290574 1.607862 0.55227095
H 1.9490302 1.5096765 -0.14971632
H 1.4646484 -0.3906254 1.0118079
H -1.720297 -0.57290876 -1.6442258
H -0.11369878 -2.0646062 -0.5582399
H -0.0543118 0.52201 1.5362775
H -1.9146637 0.42149192 -0.117484875
