11

O -1.1191549 1.253857 -0.48555017
C -0.6131145 0.7315442 0.71853507
C 0.46247873 -0.2988913 0.45466596
C 0.4257927 -1.1363995 -0.74185693
O 1.2801938 0.0066317623 -0.67143184
H -0.3429864 1.4275919 -1.039304
H -0.19506194 1.5254229 1.35766
H -1.4472842 0.2722024 1.2585013
H 1.0125943 -0.6532506 1.3265649
H -0.4091174 -1.0357734 -1.4315544
H 0.9456599 -2.0929356 -0.74622995
