10

C -1.22005069 -0.15240131 -0.08208544
C 0.01051189 -1.74222578 -1.55422485
N -0.60774935 -0.91518343 -0.90023053
C 1.96121717 0.53039135 1.14906282
C -0.51467832 0.65799755 0.89609884
N 0.75529035 0.66882562 0.98640528
H -2.30225325 -0.11599033 -0.12452429
H 0.38191298 -1.41854840 -2.53288439
H 2.61796950 1.20475395 0.58723685
H -1.08217031 1.28238054 1.57514553
