10

C -0.83731776 0.74653256 -0.5099764
C 0.670009 -1.6821102 1.4729652
N -0.07886331 -0.7556043 1.1889615
C -0.93545735 0.09549624 0.78526926
C 0.93764573 0.10205937 -2.1357622
N 0.10690272 0.49159673 -1.3282467
H -1.5873705 1.4727234 -0.8004191
H -1.7626789 0.34031153 1.4400789
H 1.5835447 -1.4302098 2.0240874
H 1.9035856 0.61920446 -2.1369576
