10

C -1.2212558 -0.38337672 -0.34899464
C -0.092536114 -0.811425 -1.044933
N 1.1349119 -0.43155715 -0.7003295
C 1.2205257 0.38225138 0.35014674
C 0.09318654 0.8118181 1.0450143
N -1.1351368 0.4314159 0.7002794
H -2.2175305 -0.70521975 -0.6467865
H -0.18336701 -1.4761972 -1.9004766
H 2.2177505 0.7040777 0.6471018
H 0.18345156 1.4782125 1.8989778
