12

O -0.8425131 1.9539355 -1.2867957
N 1.2357821 -0.93155897 0.6416218
C -0.17097251 -0.7594016 1.0935383
C 1.0662428 -0.08041998 -0.39114115
N -1.1720604 1.2671597 -0.08225965
C -0.39797488 0.16939366 -0.12684798
H 1.7564306 0.104356505 -1.2078753
H -1.5507199 2.602267 -1.3429824
H -0.73215115 -1.6956602 1.0907856
H 1.679295 -1.8401747 0.56788886
H -0.622419 -0.53853154 -1.0119612
H -0.24893947 -0.25136515 2.0560286
