10

O -0.27941233 -2.134565 0.10364272
C 1.0771456 -0.26850602 -0.3613234
C -0.9607688 1.2608671 0.45357636
N 0.27792537 1.7383125 0.15703268
N -1.2260996 -0.0744129 0.31946602
C -0.17663108 -0.8056005 0.05390946
N 1.2777216 1.02431 -0.39164233
H 1.8609804 -0.9222491 -0.72795767
H -1.1981353 -2.3218791 0.36245832
H -0.65272593 2.5037234 0.030837744
