9

O -1.1553754 -1.2845194 -1.0832115
C -0.3789232 -0.4721234 -0.34671146
C 0.47729623 -0.7912123 0.6524047
O 1.0303382 0.39213213 1.0843977
C 0.4713701 1.3313651 0.3174437
N -0.376163 0.888471 -0.5544994
H -1.6392819 -0.7230051 -1.7040622
H 0.7980897 -1.6952696 1.1433114
H 0.7726492 2.354162 0.49092725
