9

O 0.79732543 1.6114973 0.63913006
C 0.9177011 -0.7166262 -0.059458554
C -1.2556671 -1.0622067 -0.3591357
O -0.02248929 -1.6154337 -0.48676577
C 0.2864978 0.43662044 0.23882872
N -1.0823171 0.22229864 0.10578707
H 0.060405087 2.1727984 0.9134357
H 1.9451808 -1.0394685 -0.0010400738
H -1.6466367 -0.0094794845 -0.99078137
