12

O 2.0008347 -1.4451243 0.327557
C 0.6010673 -1.5661407 0.2740605
C -1.5532516 1.2289187 -0.03143284
N -0.36104366 1.7542782 -0.3690735
N -1.4140725 -0.04211614 0.27779838
C -0.07580065 -0.24240921 0.10992615
N 0.6022286 0.81859607 -0.2809524
H 2.2581506 -0.7469626 -0.2907633
H 0.2780576 -2.2236435 -0.5501645
H -0.12847596 2.694732 -0.646128
H -2.4723198 1.7999817 -0.027758064
H 0.26462534 -2.0301104 1.2069308
