11

C -0.35507517 1.54796136 -0.01007400
C -0.17984988 -0.89099144 -0.55895112
O 0.47245577 -2.09688178 -0.32054156
C 0.16288131 0.16145998 0.18140689
O 1.05774272 0.05053697 1.19669179
H 0.46862733 2.23061467 -0.24613770
H -1.08372507 1.57860712 -0.82347039
H -0.87472954 -0.83991468 -1.38931464
H -0.83143334 1.90743783 0.90828445
H 1.35266927 -0.87415820 1.20511267
H -0.18956354 -2.77467181 -0.14300618
