11

C -0.41017815 0.9175119 -1.1531191
C -0.07336452 -0.33280975 -0.3784399
O -0.05278856 -1.4384289 -0.87856644
C 0.2782857 -0.18548337 1.0923694
O 0.6541774 -1.4030745 1.6521702
H 0.5182317 1.3391665 -1.5567038
H -0.87044126 1.6802999 -0.51598704
H -1.0674223 0.67881614 -1.9921397
H -0.6010388 0.239181 1.6049474
H 1.0831505 0.5605731 1.1844687
H 0.54138815 -2.055752 0.9410005
