11

C 0.585281 0.86400294 -0.24302906
C -0.2824116 -0.24399519 -0.047687057
O -1.2959892 -0.3541592 -0.7667077
C 0.0686084 -1.2817783 0.9811425
O -0.20487753 1.7998426 -1.2364478
H 0.14392869 -2.2585928 0.4938964
H 1.0070597 1.445523 0.56717116
H -0.9836663 1.163354 -1.3908305
H 0.6924549 1.2601427 -1.5579443
H -0.74095607 -1.338927 1.7147219
H 1.010568 -1.0554128 1.4857144
