9

O -0.34306324 -1.2704034 0.2983513
C 0.43435606 -0.565847 1.0857033
N 0.79509693 0.60550314 0.614014
C 0.065277845 0.7274711 -0.6464605
C -0.6412071 -0.47653943 -0.9008232
O -1.3393995 -0.9285782 -1.7642092
H 0.3445383 1.4957298 -1.3474808
H 0.7217108 -0.9707015 2.0464718
H -0.037310135 1.3833656 0.61443305
