9

O -1.3210874 -0.351371 -0.19191529
C -0.98681396 0.9648203 0.0035066584
N 0.23115343 1.2603582 0.17651905
C 0.9419484 -0.008596063 0.1066204
C -0.12924276 -1.0596532 -0.14282829
O -0.06821989 -2.2403996 -0.27990818
H 1.4771483 -0.21343504 1.0391672
H -1.8243923 1.6538132 -0.008937491
H 1.6795062 -0.0055369143 -0.702224
