11

C 0.61228806 0.37524357 -2.1535714
C 0.052633267 0.16192006 1.0852207
O 0.93337274 -0.8503998 1.507971
C -0.6740352 -0.22599694 -0.18734904
O 0.33478042 -0.46838215 -1.2029455
H -0.6802741 0.297198 1.8860495
H -1.2052389 -1.1726698 -0.063954875
H -0.13860114 1.2189407 -2.0427709
H -1.3534642 0.5620821 -0.5413274
H 0.5685424 1.1214442 0.92751825
H 1.5499967 -1.0193799 0.7851594
