10

O -1.1182092 1.700228 -0.13303599
C 0.8938078 -0.56982654 0.93521464
N -0.04991961 -0.18737766 -1.0965891
C 0.9422515 -0.76596564 -0.53962475
C -0.84432286 0.35016555 0.010856792
N -0.12787072 0.12357602 1.2626966
H 1.7053384 -1.3054467 -1.093501
H 1.6155465 -0.9381696 1.658811
H -1.2592455 1.8607253 -1.073868
H -1.7573762 -0.2679089 0.069040015
