10

O 1.0160928 -0.5479453 1.8631955
C -1.147668 0.25160286 -0.6385506
N -0.9260206 -0.4419307 0.48514402
C 0.037831556 0.8024412 -1.1242127
C 0.404173 -0.31055307 0.68159187
N 1.0538001 0.49794537 -0.2786371
H 1.0881729 -0.840394 -0.2561814
H 0.3841793 -1.0492463 2.396762
H 0.22473072 1.3312585 -2.0483856
H -2.1352918 0.30682144 -1.0807261
