10

O 0.72717316 1.90523258 -0.01318160
C -0.32771792 -0.96655722 0.97805378
N -0.48548428 0.29036080 1.14281247
C -0.19159822 0.87929235 -0.16046800
C 0.14716701 -1.25784168 -0.40238319
N 0.27651908 -0.17425073 -1.06455805
H -0.51120153 -1.69392471 1.76383069
H 1.15169114 2.02897256 -0.87067119
H -1.16031222 1.22650727 -0.56059636
H 0.37376378 -2.23779116 -0.81283811
