10

O 0.06345497 -1.450403 1.6636561
C 0.03810517 -0.4753436 0.7389473
N 0.13596192 0.8026554 0.95153093
C 0.055547506 1.3643689 -0.31186983
C -0.0904744 0.40649402 -1.2661725
N -0.10053037 -0.79837316 -0.5680236
H 0.16803963 -0.9992731 2.5137646
H 0.10945327 2.4361691 -0.44549978
H -0.18681581 0.4442452 -2.3398557
H -0.19274189 -1.7305397 -0.93647707
