9

N -1.3072765 -0.082444645 0.13083784
C -0.16654369 0.1651025 -0.76081336
N 1.0639644 -0.48960876 -0.3417192
C 0.57525814 0.6302872 0.41393387
O -0.48380882 0.26542196 1.2867298
H -1.5054213 -1.0827817 0.21891198
H -0.30387765 0.49903518 -1.7795241
H 1.1947366 1.4731995 0.6883381
H 0.9329689 -1.3782111 0.14330481
