9

N -0.9348671 0.7576327 -0.2909104
C -0.02389503 0.019546686 -1.0863439
N 0.96838087 -0.51830393 0.81751984
C -0.37679198 -0.37840256 0.44768617
O 1.2297121 0.3052068 -0.87831676
H 1.0570768 -0.31459835 1.8439201
H -1.0949752 -0.89506805 1.0839872
H -0.48436296 1.6324846 -0.016436102
H -0.3402775 -0.6084978 -1.9211062
