12

C -1.2062721 0.94241756 -0.09412418
C 1.6453874 -0.35430953 0.35227406
N 1.1214058 -0.6985663 -0.7772971
C -0.8182216 -0.47078076 0.18877523
O 0.8890948 -0.11706196 1.3312387
H 1.7427032 -0.8826274 -1.5561599
H -1.0467641 -1.1771022 -0.59992605
H -2.3062913 0.97513586 -0.14950447
H -1.0775708 -0.8523713 1.1671866
H 2.731058 -0.2534433 0.48292738
H -0.80013514 1.280732 -1.0489693
H -0.874394 1.6079774 0.703579
