12

C 0.27221817 -1.5725936 0.9366588
C -0.8021041 1.2317283 -0.38477245
N 0.8302546 -0.4417972 0.43539378
C 0.29073095 0.22577412 -0.7362518
O -0.63434035 -2.1881638 0.4141858
H 0.7545731 -1.8946087 1.8790648
H 1.1175357 0.71456087 -1.2620947
H -1.1918943 1.7064726 -1.2894821
H -1.6265785 0.7214111 0.12315618
H 1.5188357 0.035067655 0.997595
H -0.11032121 -0.55612284 -1.3888825
H -0.4189096 2.0182714 0.27542952
