12

C -0.02735697 -1.49486093 1.09047023
C 0.09666082 0.04888297 -0.81598549
N 0.70686502 -0.71177581 0.26036931
C -0.37981163 1.42599009 -0.36176091
O -1.21202232 -1.72473838 0.95826804
H 0.58356529 -1.92941917 1.90436346
H -1.12000545 1.31746355 0.43730622
H 1.66375459 -0.51936755 0.51523328
H -0.74881675 -0.54265534 -1.18120136
H 0.82527708 0.13577476 -1.62875699
H -0.84231370 1.96535933 -1.19301945
H 0.45420413 2.02934678 0.01471370
