9

O -1.4746621 -0.7194318 -1.1314932
C -0.48965213 -0.1643906 -0.41783956
N 1.3682133 0.13690811 0.70620674
N 0.7244834 1.3718587 0.43503335
N -0.40433347 1.1480649 -0.20035402
C 0.57501954 -0.8141818 0.19741488
H -2.0516639 -0.0031501101 -1.4330602
H 0.94676554 0.9105885 1.5740514
H 0.8058297 -1.8662659 0.27004057
