12

N -0.69662987 -0.77348319 -0.79035539
C -1.16160510 -1.21461282 0.33650793
N 0.60902328 0.89934745 0.32275946
C -0.34059604 -1.09474629 1.51475406
C 0.49684712 0.10795438 1.52075385
C 0.18604918 0.32719331 -0.74743760
N 0.51640461 0.79588636 -1.98962977
H -0.13296024 0.57337836 -2.72698669
H -2.04594228 -1.85037257 0.33063569
H 0.14791151 0.71163214 2.37688119
H 1.50372316 -0.20390755 1.85686335
H 0.91777457 1.72173060 -2.00474595
