12

N -1.5219215 -1.1019417 -1.3445253
C -0.6196686 -0.4513223 -0.5533177
N -0.69071335 -0.69706357 0.76637155
C 0.21971802 -0.08983222 1.5149046
C 1.1955047 0.7563746 0.99673426
C 1.1564571 0.9374503 -0.38116238
N 0.26422372 0.3506468 -1.1710418
H -1.6485305 -0.7520563 -2.279293
H -2.3221245 -1.5006455 -0.87978435
H 0.1641148 -0.28617132 2.5838132
H 1.9285151 1.2451042 1.6255311
H 1.8744249 1.5894572 -0.87823004
