12

N -0.2855565 -0.8409279 1.7653066
C 0.09790327 0.29295483 1.085838
O 0.84583175 1.1331228 1.5357381
N -0.49581924 0.37550166 -0.1839021
C 0.2680347 0.93789315 -1.2727224
C -0.07006435 -0.5102203 -1.256191
H -1.1372453 -1.2952976 1.4782572
H -0.101758495 -0.8218915 2.7571673
H -0.27951184 1.6128277 -1.9252659
H 1.2944535 1.2209041 -1.0561011
H -0.8676401 -0.8937163 -1.8897401
H 0.7313724 -1.2111505 -1.0383849
