12

N 0.32060876 0.2076398 -0.09969526
C -0.45116252 0.14940472 1.0832932
O -0.01086543 0.5415489 2.1395524
N -1.6974258 -0.35040355 0.86280173
C 0.064954154 -0.2179182 -1.3832477
C 1.6373048 0.50370306 -0.17737737
H -0.6957814 0.28455892 -1.9766761
H -1.8601718 -0.90943503 0.04034035
H 0.6585399 -1.0238416 -1.7903028
H 1.9698825 1.2019768 -0.9329061
H 2.3321543 0.107669584 0.55598277
H -2.268037 -0.49490333 1.678235
