11

N -0.7876967 1.5672578 0.114241466
C -0.7673666 1.1424131 -1.0384113
C -0.25913668 -0.37658903 -0.98747826
C 0.9889599 -0.3177867 -0.082103275
C -0.09908954 -0.32201916 0.97042024
O -0.9556976 -0.9562664 0.104014665
H 1.6878364 0.5149583 -0.16282398
H 1.4950497 -1.2877682 -0.11717586
H -0.332233 -0.9425502 -1.9141879
H -0.8702424 1.6392049 1.1092719
H -0.10038333 -0.6608544 2.0042322
