17

C 0.28825066 2.02924969 1.16016255
N -0.33630796 1.19363864 0.15276889
C 0.06144114 -0.10564330 -0.08430086
O 1.26251900 -0.34572689 0.46463609
N -0.55934457 -1.00449509 -0.74312838
C -1.83078708 -0.65279668 -1.33991839
C 1.79587734 -1.64122765 0.21625477
H -2.59242632 -0.37833099 -0.59114052
H -0.09978413 3.04491583 1.04804474
H -1.31390787 1.35932113 -0.01346645
H -1.75535696 0.17364900 -2.06353037
H 1.13383904 -2.42092813 0.60082517
H 0.09384607 1.68475103 2.18366410
H 2.75478268 -1.66110089 0.73827019
H 1.36844560 2.05436378 1.00495957
H 1.94193621 -1.80526964 -0.85565565
H -2.21302296 -1.52436990 -1.87844537
