12

C -0.28549111 0.51977484 0.71322530
N 0.08547330 1.37006702 -0.29770791
C 0.37873561 0.29492903 -1.24800203
N -0.44430401 0.73129581 1.94934664
C -0.29431400 -0.67473648 -0.25273880
O 0.50762975 -1.77231029 0.08980150
H -0.09983776 0.40535657 -2.22395050
H 0.56545194 2.24868136 -0.17883834
H -0.77633309 -0.11374525 2.41060701
H 0.22779969 -2.09901737 0.95239551
H 1.44216768 0.06201844 -1.35778944
H -1.30697796 -0.97231362 -0.55634908
