12

C -0.7673652 1.1757267 0.0032459127
N -0.1831528 -0.15312707 -0.14484476
C 1.0626779 -0.41135266 0.40203157
N 1.703223 0.4857662 1.0324618
C -0.8551339 -1.1487827 -0.81914365
O -1.9397819 -1.0240602 -1.3328028
H -1.7418141 1.1612239 -0.48466036
H -0.11545236 1.921133 -0.46047893
H -0.86981714 1.4169475 1.0636511
H 1.4029535 -1.4417934 0.22645304
H 2.589811 0.1169602 1.3578485
H -0.28614795 -2.0986414 -0.84376156
