10

C 0.6171074 1.0541674 1.2819797
O 0.1067324 -0.975188 -0.23283394
C -0.1713579 0.17576405 -0.75906056
O -1.9311383 -1.6955223 -1.2972072
C -0.8054929 -1.3397124 -1.4572083
O 0.049005736 1.2380048 -0.038812734
H -0.0029709924 0.3719058 1.8666008
H 1.6324558 0.6590882 1.1982003
H 0.6278588 2.047886 1.7258712
H -0.12220008 -1.5363934 -2.2875295
