10

C -0.9908771 0.38511512 -1.3124954
O -0.5378548 -0.3932097 -0.19330603
C 0.52303314 0.0946043 0.4339846
O 1.1175866 1.1046424 0.14830713
C 0.96196795 -0.76558673 1.6127304
O 0.40546504 -1.7737069 1.9471872
H -1.8496038 -0.15615822 -1.7057785
H -1.279383 1.3869767 -0.985274
H -0.2028107 0.4625783 -2.0649471
H 1.8524767 -0.34525514 2.119592
