9

O 0.8392517 -1.7212068 -0.62453836
C 0.27644292 -0.5729211 -0.21451789
N -0.6578071 0.06893185 -0.8971705
N -0.90787613 1.1224248 -0.12514728
N -0.21682836 1.21141 0.9903427
C 0.5617041 0.13154186 0.96821195
H 0.44100145 -1.9589651 -1.4717342
H -1.5960523 1.8115637 -0.38331738
H 1.2601637 -0.09277941 1.7578707
