10

O 1.0045463 -0.78305215 -1.5905403
C -0.70060456 0.5866151 -0.4173038
C -0.7580426 0.8778942 0.9306348
C 0.3281198 -0.37372005 -0.49612892
N 0.13391839 0.16517821 1.6544464
N 0.8518727 -0.58007705 0.8239363
H 1.8833054 -1.0716028 -1.3044487
H -1.2807622 0.9813732 -1.2371858
H -1.4288065 1.5625687 1.434572
H -0.03354674 -1.3651772 0.20201802
