10

O 0.025250632 0.32688835 2.0228267
C -0.024277702 0.11997844 0.6884933
C 0.89084226 -0.28645855 -0.25628513
C 0.14219138 -0.28018117 -1.4609703
N -1.110169 0.09348244 -1.2775738
N -1.191459 0.33521086 0.050293162
H 0.9156948 0.13119909 2.337037
H 1.9280478 -0.5451688 -0.10557392
H 0.48419824 -0.53745925 -2.4545763
H -2.0603194 0.6425087 0.45632935
