10

O -1.78330104 -0.08658206 0.87783863
C 0.36734377 0.82236660 -0.00018726
C -0.41169814 -0.24920674 0.69870623
C 1.09670125 0.19624967 -0.92057175
N 0.80433087 -1.21312905 -0.92589199
N -0.06923624 -1.47288500 -0.06504850
H 0.01282441 -0.41972818 1.69744947
H 1.82416508 0.57261403 -1.62740639
H -2.19507910 -0.02150645 0.00595989
H 0.35394914 1.87180729 0.25915175
