11

O 0.86013067 0.960613 -1.0902859
C -0.9146088 0.04402774 0.7689474
N 0.43725723 0.42939085 1.2106795
C -0.5223507 -0.6958199 -0.55696535
C 0.89870816 0.09060274 -0.103258006
C 0.7281681 -1.2742658 -0.55753493
H -1.5706854 0.88617224 0.5483637
H 1.1807909 -1.5892496 -1.4936038
H -1.4049894 -0.64312154 1.4644253
H -0.19689319 0.35472712 -1.5340114
H 0.50447226 1.4369233 1.3432435
