11

O 1.2459812 -2.0263572 -0.6781218
C -0.41599727 1.1508032 -1.0624999
N 0.123332776 -0.67128605 0.8048584
C 0.35131964 0.114415534 -1.3702573
C 0.6660442 -0.99406594 -0.4290227
C -0.43843678 0.604296 0.95605016
H 0.7456178 0.0188595 -2.3786054
H -0.101145566 -1.432257 1.4312029
H -1.332347 0.61170095 1.5861815
H 0.2585322 1.3986751 1.233457
H -1.1029012 1.2252158 -0.09324295
