11

O 0.014615645 -1.8462175 -1.057153
C -0.09955635 -0.7145464 -0.36455145
N 0.9490653 0.09097487 -0.30271086
C -0.8885664 1.0311567 0.9207756
C -1.1988454 -0.1956671 0.34672073
C 0.5416014 1.2561991 0.5071037
H 1.8301015 -0.09932544 -0.7520153
H 1.1896436 1.3472525 1.3852183
H -0.8243479 -2.3242147 -1.0103079
H -2.1495168 -0.72069615 0.40835992
H 0.63580567 2.1750846 -0.081439376
