10

N -0.92738064 0.16117780 0.37454926
C 0.30397490 0.69817720 0.04601509
N 0.57512504 1.93061551 -0.01971263
O -1.86599802 -1.96408400 0.35528292
C -0.95299154 -1.20747409 0.21449587
O 0.29964362 -1.58528908 -0.15013213
N 1.13779020 -0.42998694 -0.14616216
H 1.54719307 2.10611183 -0.23822095
H -1.73434419 0.71448987 0.60340931
H 1.61698745 -0.42373805 -1.03952459
