10

N 0.22514261 1.7692149 0.39068338
C -0.20031196 0.48028767 0.16471237
N -1.4007815 0.050445445 0.36307535
O -1.3366551 -1.3390421 0.10416384
C -0.08177675 -1.6999847 -0.25892368
O 0.28219172 -2.8118815 -0.52252454
N 0.6443152 -0.5145436 -0.2525848
H 0.75068986 2.1733859 -0.3722505
H -0.5313286 2.372964 0.68294156
H 1.6485144 -0.48084596 -0.29929298
