12

N 0.8839852 -0.035380375 -0.81923485
C 0.90600216 1.2941111 -0.15679717
C -1.1597633 0.83914745 0.012033932
N -0.4297216 1.8780725 -0.11552906
C 1.0026073 0.051082887 0.6388544
N -0.8051939 -1.7051787 0.05997355
C -0.29045412 -0.38804302 0.04292332
H 1.7622046 -0.4411247 1.235867
H -1.3152813 -1.9049495 -0.79366624
H -2.2387385 0.86024696 0.118107304
H 1.7512988 1.9388727 -0.3798409
H -0.06694526 -2.3868573 0.15730874
