11

C 1.00147142 1.43129541 -0.30661681
N 0.15875287 0.49786145 -0.01829564
C 0.35248834 -0.96320294 -0.29083421
N -0.84575055 -1.57130892 0.20981301
C -1.53188630 -0.57535262 0.66749425
N -1.03336011 0.68907265 0.58427473
H 0.47921551 -1.11288893 -1.36767299
H 0.74532013 2.45269965 -0.05777691
H 1.93620750 1.16045707 -0.78336985
H 1.24666331 -1.30332651 0.23926379
H -2.50912215 -0.70530595 1.12372058
