11

C 1.3803903 0.5192206 -0.9851385
N 0.40422478 0.28126746 -0.17576727
C -0.9987649 0.38730112 1.4056036
N 0.069618955 1.0495001 0.88189226
C -0.52668095 -0.8906381 -0.25683352
N -1.4178346 -0.7030007 0.85080105
H 1.5643469 -0.17376137 -1.7977358
H 1.9837881 1.4021609 -0.8204299
H -1.4718708 0.80767596 2.288483
H -1.0461565 -0.8693628 -1.2200261
H 0.058938332 -1.8103628 -0.17084888
