13

C 0.61986744 0.30059552 0.8039495
C -0.36278963 -0.43817163 -0.14068817
N -1.3429774 -1.082335 0.5643656
O -0.7461263 -2.1337187 1.0081723
C -0.7956084 0.45319238 -1.2872548
O 1.7660213 0.64404505 0.05758366
H 0.8667543 -0.33552402 1.6671213
H 0.10562314 1.2027506 1.1690407
H 0.18526572 -1.7693397 0.2522345
H -1.471506 -0.072946556 -1.9665923
H 2.3829749 1.1059732 0.6361478
H 0.093159355 0.76667184 -1.8420322
H -1.3006585 1.3588068 -0.9220479
