13

C 0.10421645 0.22536871 -0.19531168
C -0.13012491 -0.35100484 1.1879091
N -0.8705652 0.20171984 -1.0084835
O -2.1084347 -0.3654175 -0.6514534
C 1.4189271 0.79771405 -0.60663456
O -0.5801758 -1.6799674 1.1175678
H 1.3728808 1.2072582 -1.6178035
H 0.81185293 -0.3442008 1.7436142
H 2.1863728 0.015397325 -0.5719794
H -0.8496907 0.30241373 1.7079105
H -1.6913248 0.037856985 -1.7780805
H -1.3923335 -1.6363181 0.58570445
H 1.7284001 1.5891799 0.08704034
