13

C -0.15835132 0.45268974 1.08581536
C -0.00882550 0.05788711 -0.37512456
N -0.32401587 -1.09310239 -0.82323817
O 0.51477499 -0.41550838 1.96219701
C 0.54557726 1.05190038 -1.34989446
O -0.84662244 -1.91582188 0.19225304
H 0.28003415 1.44678416 1.22972117
H -1.23122136 0.52861899 1.32008844
H 0.15126769 -1.29684021 1.79263481
H 1.56520183 1.33142328 -1.06370631
H -0.05434019 1.96957459 -1.34918089
H -0.99150887 -2.75104408 -0.26411385
H 0.55802951 0.63343889 -2.35745153
