13

C -0.3590813 -0.12105822 0.428475
C 1.1103704 -0.15437627 0.01987475
N -0.41458777 0.8268537 1.587674
O 1.2235348 -1.0263294 -1.0866966
C -1.2604734 0.3963155 -0.6828433
O -0.45318383 0.23811515 2.6429925
H -2.3107572 0.38293645 -0.3739446
H -1.1486915 -0.23045081 -1.5705847
H 1.7059139 -0.5085689 0.8758657
H -0.6519787 -1.126295 0.75729877
H 1.4372305 0.8695868 -0.2255321
H -0.9991419 1.4281962 -0.94081414
H 2.1208463 -0.97492486 -1.4317652
