9

O 1.7444288 0.54245746 -1.6402395
C 0.8891878 0.35593113 -0.81876236
N 0.2675722 -0.81380105 -0.44385526
C -0.6714619 -0.55780864 0.55601376
C -0.61591524 0.75790393 0.7849132
O 0.32247332 1.3363088 -0.03676311
H 0.48681045 -1.699897 -0.8645434
H -1.2778672 -1.329197 1.0008912
H -1.1452281 1.4081025 1.4623452
