9

O 0.43443609 0.01180557 -2.38722451
C -0.40475102 -0.16273297 0.06102600
N 0.89030639 -0.87010727 -0.18142166
C 0.35035601 -0.22602750 -1.22140345
C -0.33649760 0.99458784 1.01444435
O 0.68091078 1.38526666 1.52356443
H 1.03473607 -1.86606924 -0.10900593
H -1.33049118 -0.73862759 0.08979021
H -1.31900540 1.47190463 1.21023030
