9

O -0.35954186 1.6022059 -0.019825991
C 0.61915755 -0.43578053 0.46107787
N 0.18864208 -0.80653864 -0.8950183
C 0.33378813 0.905194 0.74845624
C -1.0444282 -0.48042485 -0.7164905
O -2.1934352 -0.49376005 -0.65373826
H 0.67205405 -0.40670493 -1.6998689
H 1.0702822 -1.1990498 1.077805
H 0.71348095 1.3148589 1.6976027
