9

O -1.7396648 1.2536001 0.3254305
C 0.15910743 -1.2437409 -0.3057081
N 0.07494353 -0.27639484 -1.2250042
C -0.68728495 0.9777169 0.8385953
C 0.3749125 0.14883527 0.17696974
O 0.14784452 -2.419636 -0.10591664
H 0.6882229 -0.1538895 -2.0167902
H -0.4188714 1.3166184 1.8606447
H 1.4007903 0.3968907 0.4517789
