11

N 0.96811664 0.46631336 -2.1406434
C 0.5789132 0.2437221 -0.9568299
C -0.7988373 -0.11844711 -0.6449088
C -1.1487063 -0.34329453 0.6267431
C -0.12420406 -0.20999926 1.6415824
N 1.094565 0.105039924 1.4177561
O 1.4605483 0.3381783 0.1006025
H 1.9600006 0.7010595 -2.1652658
H -1.4815601 -0.18907501 -1.482388
H -2.1599758 -0.6157154 0.9139539
H -0.34886014 -0.37778208 2.6893978
