11

C -1.1345694 1.1456202 0.60334235
C -0.22013122 0.03056247 0.20818046
C 0.76305825 -0.014165619 -0.7461711
N 1.2471888 -1.2772055 -0.65521085
N 0.61362886 -1.9768449 0.28798673
N -0.2722341 -1.1944519 0.813314
H -2.1800187 0.8591552 0.45930633
H -0.9373181 2.0408108 0.0059286337
H -1.0046206 1.4002357 1.6587883
H 1.1435816 0.70821786 -1.4507213
H 1.9814341 -1.7219344 -1.1847434
