11

C 1.0385703 0.1271293 1.3270187
C -0.044881135 0.17449722 0.30019796
C -0.10128287 -0.43673852 -0.99339324
N -1.2021229 0.8256467 0.44492722
N -1.1579126 -0.25668728 -1.705382
N -2.1414123 0.97948825 -0.21156122
H 0.76128113 -1.0255519 -1.3077741
H -1.1578797 -0.7019288 -2.6153994
H 1.4252256 1.1223706 1.5680249
H 1.8723962 -0.46377912 0.9346717
H 0.70801806 -0.3444465 2.2586691
