9

O -1.49119790 -0.57184553 0.81978449
C -0.27019223 -0.16816054 0.34588483
N -0.42960674 0.65855059 -0.82577423
N 0.63783968 0.85549379 -1.43094153
N 0.77805243 0.21940523 1.32718228
C 0.90926529 -0.88208061 0.70723736
H -2.12361979 0.12731070 0.59735977
H 1.58708016 -1.72217867 0.67463202
H 0.40237896 1.48350501 -2.21536502
