9

O 1.6599263 -0.35182673 0.52286214
C 0.4889621 -0.033881925 -0.037002284
N -0.12320198 1.0993792 0.26681766
N -1.2320558 -1.3517798 -0.4597852
N -1.359149 1.1121137 0.49630383
C -0.10947815 -1.106173 -0.90681064
H -1.6492783 2.095265 0.40663707
H 1.7852771 0.1583153 1.3362793
H 0.5389975 -1.6214118 -1.6253017
