9

N 0.49722427 -0.35050592 1.7094798
C 0.22434096 0.11807366 0.56258094
C -0.35271242 -0.59290826 -0.5701409
N -0.7718219 0.57250845 -2.6588283
N -0.5747599 0.037772447 -1.6879642
O 0.47366327 1.4189177 0.2940152
H 0.84723395 1.7746497 1.1147039
H 0.2633165 -1.3377454 1.785154
H -0.6064848 -1.6407622 -0.54900074
