9

N 1.21203426 0.01811829 -1.30829783
C 0.04340888 -0.31248178 -0.83754260
C -0.32540066 0.06365682 0.52041319
N 2.21892813 0.29893556 -1.72622070
N -1.41702376 -0.18051482 1.11886815
O 0.65033899 0.74648718 1.15928659
H -0.60098866 -0.87258248 -1.49624148
H -2.06733699 -0.69865693 0.53260654
H 0.28603963 0.93703804 2.03712860
