11

N 0.4730617 1.1801584 -0.33234078
C -1.253935 -0.04082998 0.39389968
C -0.77651036 1.3507321 0.030530082
C 1.0745348 -0.16174518 -0.31049797
C -0.08783824 -1.001049 0.19680849
O -0.052844618 -2.186801 0.39881483
H 1.3946527 -0.4904257 -1.306105
H 1.9314924 -0.22660802 0.36780235
H -1.625782 -0.070942745 1.4257257
H 1.0309076 1.9732082 -0.6310548
H -2.1077387 -0.32569727 -0.23358257
