10

C -1.22556338 0.60420616 0.18803990
C -0.50103198 -0.85468892 -1.52646728
N 0.69260098 -0.83052844 -0.82084116
C 0.98432901 -0.15806477 0.32098057
N -1.47031444 -0.06260710 -0.91995385
C 0.00206603 0.60319063 0.87540617
H -2.05141549 1.19516654 0.59039998
H 1.42826280 -1.39522743 -1.22924589
H 1.98357139 -0.26628978 0.73330205
H 0.15749554 1.16484286 1.78837943
