10

C 0.25267375 -1.057547 -0.38698143
C -0.42829004 -0.03418402 -1.0058447
N -0.14645283 1.3645796 0.95340663
C 0.59031165 0.3779596 1.5055938
N 0.7967238 -0.795687 0.81140095
C -0.5847055 1.1569169 -0.2852253
H 0.3918079 -2.0474982 -0.811344
H -0.84616536 -0.14362668 -1.9994755
H 1.0975858 -0.8096629 1.959812
H -1.123489 1.9887499 -0.7413427
