10

C -0.5337715 1.2250422 -0.34174466
C -0.35590962 0.51450914 0.8595277
N 0.5945472 -1.1106644 -0.50615406
C 0.23707408 -0.7042433 0.73807436
N -0.17233817 0.796268 -1.5324217
C 0.4370648 -0.44134083 -1.7105032
H -1.0085871 2.2080498 -0.3042517
H 0.4392171 -1.3740851 1.5691322
H -0.67349565 0.9052979 1.818462
H 1.036199 -2.0188334 -0.59012103
