11

O -0.27765423 1.6381333 2.1661687
C -0.21343662 0.8651327 1.2339594
C 0.7552071 1.0189236 0.1357855
C 0.78155726 0.1357 -0.8728001
N -0.1037951 -0.919896 -0.87749565
C -0.99363405 -1.0419426 0.15284409
N -1.0889584 -0.24676254 1.1535089
H 1.4367619 1.8597198 0.16789402
H 1.4656844 0.1851543 -1.713685
H -0.10295449 -1.5935687 -1.6243247
H -1.6587777 -1.9005936 0.078144915
