10

O -0.69768417 -1.4480511 -1.9235742
C -0.04455558 0.37098238 1.8599491
C 0.12083438 0.3668511 -0.61125094
N 0.6889005 1.4553069 -0.5079432
O 0.36335513 1.5066501 2.0260909
C -0.0131985685 -0.3662676 0.63031137
C -0.15137178 -0.38250786 -1.9234139
H -0.5493546 -0.18885891 2.672003
H 0.20478849 0.13137753 -2.8317666
H 0.07828621 -1.4454826 0.6095945
