10

O -1.42295082 0.85706135 0.61149564
C -1.09857497 -1.48750491 0.41856027
C -0.65611336 -0.03135108 0.31157858
N 1.50125817 1.34814067 0.48906892
O -0.39261548 -2.42134037 0.14550918
C 1.09466679 1.52874477 -0.67516891
C 0.74108142 0.20854668 -0.17282475
H -2.14556091 -1.60220285 0.77088707
H 1.30957986 -0.67925791 -0.44719017
H 1.06922942 2.27916359 -1.45191561
