10

O -0.83997566 -1.8469753 -1.0220739
C -0.6471845 -0.068659194 0.7085192
C -0.32053986 -0.8600735 -0.55762994
C 0.38055196 1.0185784 0.64962184
N 1.1481532 0.924772 -0.37211502
N 0.7512944 -0.17712735 -1.0922575
H -1.6763719 0.30176917 0.6772977
H -0.55367374 -0.7073671 1.5928848
H 0.51811177 1.8252511 1.3565667
H 1.2396346 -0.41016826 -1.940814
