12

N 0.08239448 -1.2482535 0.475793
C -0.98080397 0.7519643 1.1346034
N 0.17984046 -0.8188312 -1.9711453
C 0.03746541 -0.40743852 -0.65118873
C 0.95914 -0.02210764 0.45083004
C 0.31319195 1.0104878 1.3003423
N -1.1356757 -0.36847886 0.24323715
H 2.0295722 -0.19598642 0.3801622
H 0.8019935 1.7652167 1.8987291
H -1.8683969 1.208324 1.5483793
H -0.00078754406 -0.06600412 -2.6260152
H -0.4179336 -1.6088927 -2.1837275
