12

N -0.6821115 0.48145932 0.9635341
C 0.525586 -1.3942544 0.60822326
N 1.0928335 1.0499216 0.081471965
C 1.0254472 -0.40915263 -0.29581755
C -0.11202174 0.6785566 -0.36741224
C -0.4268983 -0.76669014 1.3745509
N -0.80783856 1.2388152 -1.4337199
H -0.84421724 -1.1099197 2.3175178
H 1.7696345 -0.6448411 -1.0518532
H -0.6248789 2.23229 -1.5043713
H -1.8013111 1.0539429 -1.3747224
H 0.8857759 -2.4101279 0.6825984
