11

O -1.2640606 -2.3953118 0.5125594
C -0.28535846 -0.29234305 0.1053334
C 1.1171584 0.99050295 -0.7642497
C -0.011696729 1.0547017 0.36531007
N 1.5061888 1.439754 0.36400738
C -1.3043145 -1.1961275 0.6831468
N 0.65035933 -0.6260909 -0.79328793
H -2.0805268 -0.71396047 1.3074569
H -0.6802164 1.8537472 0.6539951
H 1.1697826 1.3685694 -1.7874297
H 1.1826843 -1.4834412 -0.64684165
