11

O 0.25641310 2.24634643 1.64096675
C -0.44122171 -1.65091987 -1.24222312
C 0.30969740 -0.49043055 -0.80171691
C 0.55152732 1.57330052 0.68466168
N -0.99413876 -0.22953880 1.20631225
C -0.11251351 0.24388032 0.42087308
N 0.60265510 -1.98519603 -0.64860177
H 0.95225517 0.04407309 -1.50013691
H 1.32474991 1.90225560 -0.03768032
H -1.13174991 0.42736079 1.98251368
H -1.31767396 -2.08113183 -1.70496851
