9

O -0.81399006 1.796337 -0.27340424
C -0.5767367 -0.41967034 0.7230816
N 0.74315226 0.18518731 -0.9699757
N 0.99219227 -1.0752794 -0.6816482
N 0.16675995 -1.4842359 0.40280795
C -0.2504069 0.5888075 -0.17872055
H -0.37248325 2.263922 -0.997059
H 1.4063784 -1.4237434 0.44587693
H -1.294866 -0.43132484 1.5290414
