9

O 0.93644559 -0.24096434 -1.81714275
C 0.03623400 -0.81313865 0.38268533
N -0.60376681 0.00410511 1.26367387
N -0.71743807 1.24301158 0.80706791
N -0.15956152 1.26988728 -0.36984383
C 0.30903634 0.03735346 -0.66104894
H 0.23006631 -1.85701612 0.56069293
H -0.97864897 -0.21884683 2.17134855
H 0.94763308 0.57560840 -2.33743287
