9

O -1.7801812 -0.604367 -0.72345895
C -0.5926184 -0.20666078 -0.24070619
N 1.2613932 -0.20626563 0.67804855
N 0.24692391 -1.0153228 0.38619715
N 1.1450053 1.0434656 0.29422736
C -0.040962595 1.0836025 -0.30452996
H -1.8789942 -1.5448937 -0.52260286
H -0.43480787 1.9896656 -0.737436
H 2.0742419 -0.53922373 1.1702608
