9

O -1.6959885 0.29753622 1.0629357
C -0.44835383 0.10100162 0.57992756
N 1.7776197 -0.060544584 1.1485049
N 1.2307152 -0.021210983 -1.0357056
N 0.6376026 0.028690498 1.3531973
C -0.027593752 0.07751205 -0.79171515
H -2.1128578 -0.5550321 1.2471062
H 1.4562485 -0.026778277 -2.0244074
H -0.8173917 0.15882552 -1.5398439
