11

C -0.20912857 0.74323549 -1.03073652
C 0.06966397 -0.47997929 -0.15320487
O -1.09711513 -1.21298424 0.08104128
C 0.68588809 -0.04517624 1.15939457
O 0.17381818 -0.31017058 2.22135230
H -0.91540985 1.41441594 -0.53137404
H 0.71160155 1.29415040 -1.25252091
H -0.65536571 0.41910900 -1.97442053
H -1.21336389 -1.24194505 1.04421326
H 1.62904287 0.53297957 1.09299723
H 0.82036864 -1.11363504 -0.65674158
