11

C 0.48830023 0.2708545 1.2267354
C -0.3178446 -0.3779486 0.12179731
O -1.6286658 0.10699879 0.1325106
C 0.35520834 -0.13080226 -1.2309628
O 0.0074851667 1.1004988 1.9620578
H 0.40827078 0.9431921 -1.436875
H 1.367177 -0.5499868 -1.2563249
H -0.31360683 -1.4626566 0.3267776
H -0.23505865 -0.6011046 -2.0216117
H 1.5439553 -0.052966084 1.3213203
H -1.675221 0.7539208 0.8545752
