11

C 0.003877774 -0.2144816 -1.2787771
C 0.26692215 0.09933677 0.11766979
O 0.95751166 0.113078296 -2.068826
C -0.5549396 -0.23300366 1.3116381
O 1.3653727 0.76854694 0.23047608
H 1.6784171 0.70262516 -0.7675008
H -0.74603015 0.7338844 -0.89387614
H -1.5219673 -0.6487558 1.0180794
H -0.6978216 0.6496621 1.94
H -0.0075246724 -0.9816926 1.8953748
H -0.7438183 -0.9891998 -1.504258
