10

O -0.9543698 1.8542885 0.99655247
C -0.29637885 1.1037185 0.024495775
C -0.13845211 -0.33778837 0.46765888
O -0.5631618 -0.70471644 1.5422277
C 0.5393842 -1.234406 -0.45844948
C 1.1035562 -1.9464833 -1.2467498
H -1.1496336 1.2414547 1.7244598
H 0.70411557 1.5085825 -0.18626648
H -0.84808415 1.1089094 -0.928337
H 1.6030245 -2.5935595 -1.935592
