10

O 2.118069 1.0414418 0.8813672
C 1.7705367 0.060638785 0.2591202
C -0.5149268 -0.8665065 -0.7352079
O -1.696382 1.1494164 0.24674627
C 0.3726045 -0.29601544 0.049617417
C -1.0594532 -0.0824421 0.39614677
H -1.5078814 -0.58943045 1.2477694
H -1.2809465 1.6229362 -0.48333377
H 2.4984887 -0.6254042 -0.2156944
H -0.70010936 -1.4146347 -1.6465313
