11

N 0.13884963 2.49597201 -1.60805774
C -0.64056145 0.10912491 -0.84846630
C -0.21228759 1.44107748 -1.29232306
C -0.30766550 -0.11779333 0.61572265
C 0.94442841 -0.75634642 1.01502169
O -0.28663113 -1.47017005 1.02609342
H -0.14406839 -0.65565651 -1.45468090
H 1.65214195 -1.07273179 0.25025598
H -1.72018876 0.00686918 -1.01053405
H -0.79789866 0.55965894 1.31453580
H 1.37388148 -0.54000440 1.99243252
