12

C -0.88988247 -1.62176235 -1.48243183
N -0.41778120 -0.92936445 -0.45855964
C 0.41421352 0.11081470 -0.39009089
N 0.78726313 0.56934232 0.88942788
C 0.31326823 1.74044475 1.43480651
O 0.71993158 2.22614108 2.46946910
H -0.49299109 2.18198059 0.81647646
H -0.57796697 -1.36504425 -2.48565993
H -1.60138717 -2.40656038 -1.28141347
H 0.85418292 0.49703826 -1.29840880
H -0.74207561 -1.22609552 0.45930819
H 1.63322455 0.22306546 1.32707587
