10

N -0.6582864 -1.2207963 1.1882781
C -0.17959756 -0.3056272 0.2572927
C -0.7814531 0.7299737 -0.37723848
O 0.14076152 1.2674172 -1.2501247
C 1.2332374 0.5184955 -1.0802329
N 1.1208502 -0.42412347 -0.20704202
H -1.319714 -0.838884 1.8490775
H 0.102620706 -1.684417 1.6662837
H -1.756397 1.1897398 -0.36466026
H 2.097978 0.768222 -1.6816338
