10

N -1.10228386 0.60849479 1.00791629
C -0.13863898 0.04007589 0.17427467
C 0.35740115 -1.19512902 0.01054634
O 1.38588393 -1.12238865 -0.91312842
C 1.56213454 0.13366772 -1.37278447
N 0.62219021 0.83258326 -0.69049774
H -1.52507446 -0.07399216 1.62243712
H 0.12722861 -2.15876855 0.43559941
H -1.82267485 1.10075567 0.49284889
H 0.53383347 1.83470129 -0.76721227
