12

N -2.1292465 0.56266737 -0.08045404
C -0.7861084 0.19715267 -0.04111131
N 0.15230997 0.81889576 0.6376962
C 1.3066349 0.16076717 0.30678648
O 2.493411 0.5397692 0.8294568
C 1.0841302 -0.86926466 -0.5539275
N -0.2996344 -0.8337407 -0.7649374
H -2.293439 1.3164122 0.57433945
H -2.754813 -0.20807914 0.11405836
H 2.3041043 1.2752255 1.4258524
H 1.7345141 -1.6096811 -0.9884001
H -0.8118638 -1.350124 -1.4593594
