12

N -1.1309698 0.45163432 -0.57039136
C 0.81711155 -0.30995032 0.29800466
N 1.8441298 -0.8652183 0.859088
C -0.54791766 -0.6260203 0.06252983
O -1.2691215 -1.7201371 0.42898157
C -0.2373217 1.4089533 -0.7794458
N 0.92857534 0.98135287 -0.26778367
H -0.41552934 2.3175325 -1.3310938
H 1.6309669 -1.8307844 1.0837395
H 1.815031 1.4514989 -0.31843936
H -2.0980244 0.48088628 -0.85557616
H -1.3369303 -1.7397478 1.3903866
