11

C -0.2345366 0.8728491 1.2830641
C 0.19586454 -0.10102035 -1.0887972
O -0.7722201 -0.4358125 1.1551777
C 0.39743513 -0.10850888 0.40578413
O 0.034300245 -1.4085892 -1.5938565
H 1.0762936 0.31914976 -1.584597
H -0.67013735 0.5374874 -1.3291707
H -0.8437385 1.6666294 0.85334945
H 0.21448149 1.100131 2.250303
H -0.69042546 -1.8172703 -1.1048205
H 1.2926829 -0.62504566 0.75356305
