9

C -1.4945428 0.14268652 -1.1920686
C -0.47703293 -0.21576685 -0.46554264
C 1.2693782 0.33152682 1.1619626
C 0.5502535 -0.5973899 0.25884917
O 0.996658 1.4993709 1.3206822
H -1.3522042 0.5258029 -2.1987758
H 2.113693 -0.14085868 1.7080317
H -2.5086398 0.08076407 -0.80437684
H 0.9024371 -1.6261357 0.21123816
