9

C -1.03423296 -1.36700564 -0.85831405
C -0.13163868 -0.52928268 -0.43974633
C 0.79364488 0.30943221 -0.03218687
C 0.53533280 1.32213489 1.01821716
O -0.51897435 1.47893792 1.59029868
H 1.41722251 1.95503271 1.25468677
H -1.68457651 -1.11428045 -1.69118924
H 1.79152445 0.27749239 -0.46558534
H -1.16830220 -2.33246150 -0.37618084
