9

C 0.15208471 -1.2363051 -0.54259497
C -0.22579236 1.3582203 0.76054156
C -1.1973932 -0.6014144 -0.5978863
C -0.2737734 0.3542421 -0.3323097
O -1.117231 2.1402566 0.96398306
H 0.7037918 1.342205 1.3693978
H 0.36015937 -1.9015573 0.29486796
H 0.8878034 -0.018072324 -0.4583339
H 0.71035075 -1.4375749 -1.4576652
