14

C -2.3926687 -0.07713974 0.9719773
N -1.3512286 0.14268185 -0.014343752
C -0.03321861 0.037825298 0.3438675
O 0.35378715 -0.08008811 1.4910778
N 0.84189296 0.107350305 -0.7357252
C 2.2142966 0.0035707531 -0.5910137
N 2.9631906 0.108535744 -1.6117115
H -2.0368984 0.29106462 1.9350859
H -2.6511838 -1.1379457 1.0812265
H -3.2858627 0.48079985 0.68168956
H -1.5953639 -0.018247584 -0.9794472
H 0.5186665 0.30606326 -1.6728247
H 2.5185318 -0.17055698 0.4417339
H 3.9360592 0.0060864105 -1.3415923
