10

O 0.47186184 -0.9501753 1.6072987
C 0.4827287 -0.25936085 -1.7220749
N 1.1765368 -0.55825937 -0.63589716
C 0.6226336 -0.027192393 0.5852441
C -0.71436244 0.4321359 -1.1608455
N -0.6715802 0.54467785 0.13659802
H 1.2328804 0.7959726 0.97143376
H 0.28957462 -1.8016362 1.1849662
H -1.5606732 0.8213351 -1.7175267
H -1.3295997 1.0025026 0.7508036
