12

N 0.41053426 1.61096177 -1.44489669
C 0.89292658 -0.96689646 0.61613144
N 0.40763164 0.40867804 0.71311257
C -0.28480366 -1.56911593 0.81141142
C -0.95841792 -0.22219449 0.87007221
C -0.20202562 0.84034336 -0.51869985
N -1.40249930 0.38186308 -0.41372290
H 1.41746533 1.61746966 -1.45334950
H 1.92794662 -1.25130357 0.46582989
H -0.62109891 -2.58731962 0.94061100
H -1.53803535 0.06112519 1.75168217
H -0.04962351 1.67638899 -2.33818158
