12

O 0.65389407 -1.2861891 0.43665227
N 0.82715935 0.92410517 1.4005227
C 0.64137006 -0.5678031 -0.8107355
C 0.25221723 0.078818366 0.43879744
N -0.7021187 -0.49766955 -1.3604434
C -1.1828412 0.12109505 -0.08750511
H -1.9045101 -0.4664364 0.489956
H -1.5645995 1.1303612 -0.2574208
H -1.0901378 -1.4284611 -1.5101912
H 1.799724 0.70093876 1.5499161
H 1.5368397 -0.6055766 -1.4194276
H 0.73300344 1.8968173 1.1298791
