9

N 0.16375592 -2.43796697 -0.95311005
C 0.14424641 -1.53903011 -0.22859970
O -0.52742389 0.96509983 -1.25546291
C 0.14305407 -0.42522140 0.70799054
O 0.90475448 0.67142477 0.30916109
C 0.60825213 1.42819721 -0.75479152
N -0.41013185 -0.51732815 1.82881890
H -0.27906252 0.33895861 2.36556798
H -0.74744461 1.51586621 -2.01957453
