11

C 0.44659513 -0.27772942 -0.99600902
C -0.65658900 -0.54000667 0.01412711
O 1.56500647 0.32767383 -0.39049044
C -0.62207555 1.18953529 1.70407754
O -1.06565130 0.73328902 0.56763429
H -1.54130802 -0.97712316 -0.45588562
H 0.04399245 0.32933833 -1.81999241
H -0.30005270 -1.17462199 0.83279876
H 0.78571596 -1.23353880 -1.40882404
H 0.00390547 0.37556689 2.15785551
H 1.34046099 1.24761712 -0.20529187
