11

O -1.2941173 1.2805368 1.5574957
C -0.66473764 0.5571179 0.825359
C -0.039772548 -1.44772 -0.2630667
C 0.8133259 -0.4337509 -0.7217299
C 0.547133 0.884386 -0.04998906
N -0.91301197 -0.79448575 0.595716
H 0.3307599 1.7128556 -0.73020184
H -0.12981069 -1.0590973 -1.4712241
H 1.3831409 1.1896099 0.587576
H -1.6845531 -1.2577906 1.051929
H 1.6516435 -0.6316617 -1.3818643
