11

C -1.69461482 0.64914454 0.00976485
C 0.15845782 -0.81819217 -0.42255131
C -0.44077545 0.39232720 0.26692268
C 0.43598403 1.09876217 1.27049643
O 1.07243403 -1.42410143 0.09648850
N -0.39728101 -1.14690983 -1.61390878
H 1.27202568 1.58274618 0.75329037
H -1.08736610 -0.56592827 -2.05683037
H -0.05109537 -1.96675651 -2.08971934
H 0.85181579 0.35080674 1.95137490
H -0.11958476 1.84810135 1.83467193
