11

C -0.27908468 1.7929934 -0.022132097
C 0.23677431 0.5978889 0.07692951
C -0.7397031 -0.5621979 0.09934674
C 1.6902494 0.2593977 0.29545107
O -0.45043862 -1.5904398 0.674608
N -1.9110487 -0.35277653 -0.5489786
H 2.0688093 -0.31000984 -0.56080574
H 1.7661301 -0.3779632 1.1808674
H -2.6032128 -1.0868691 -0.528836
H -2.075984 0.47496793 -1.0944802
H 2.2975085 1.1550087 0.42803016
