11

C -0.72953844 -0.17134075 -2.3138566
C -0.16318433 -0.12251993 -0.9695431
C 0.31965077 -0.08711614 0.13390836
C 0.9779342 -0.09868202 1.439646
O 2.0850463 -0.5667421 1.6088471
N 0.24518676 0.4727291 2.4385903
H 0.008574853 0.1511208 -3.0532558
H -1.6063925 0.47835353 -2.397986
H -1.0338709 -1.1920055 -2.5621705
H 0.6119133 0.4017208 3.3758435
H -0.71532017 0.7344822 2.2999766
