11

N 0.27226615 -1.1596813 -0.88346
C 0.24942541 -1.763376 0.31951186
C -0.14963356 0.5372032 0.60242563
N 6.0394243e-05 -0.7277164 1.1750112
C 0.052731864 0.27763158 -0.88372725
N -0.39359245 1.5848753 1.2733839
H -0.08446186 -0.85614747 2.170692
H -0.83375585 0.56230634 -1.461003
H 0.9180478 0.83274496 -1.2645215
H 0.43827033 -1.6897752 -1.7208198
H -0.46935824 2.4019349 0.67250746
