11

N 0.22060542 0.40981615 2.01782928
C 0.16267396 0.05200830 0.80294853
C -0.51775664 0.64274010 -0.42384800
N -0.14543221 -0.32971916 -1.43861950
C 0.62932195 -1.35053501 -1.02655000
N 0.79351446 -1.08987352 0.30452072
H -0.30657314 1.26445895 2.17922256
H -1.60276671 0.70393716 -0.28544441
H -0.13042462 1.64472262 -0.64278116
H -0.43471174 -0.25968866 -2.39838064
H 1.33154922 -1.68786706 0.91110224
