10

O -0.38126576 1.6390551 -1.2180936
C -0.16913953 0.60634047 -0.3558854
C 0.51685077 -0.5730393 -0.5342901
N 0.4101885 -1.2358712 0.6502227
N -0.2871576 -0.568444 1.5690796
C -0.64994454 0.5576215 0.97133803
H -0.035444286 1.4005502 -2.085229
H 1.0505394 -0.9834106 -1.378573
H 0.78710806 -2.1376498 0.8850409
H -1.2417351 1.2948476 1.4963897
