10

O 0.13467968 1.6028795 -1.0037416
C -0.021241171 0.42555135 -0.29709932
C 0.81710064 0.2778749 0.89848906
N -1.705909 -1.3290824 -1.0232811
N 0.8993367 -0.8180205 1.5360281
C -0.8268355 -0.537451 -0.7105
H 1.3422028 1.2057035 1.1581974
H -1.4179431 -2.0704343 -1.6592352
H 1.5124761 -0.70494163 2.3414547
H -0.7338672 1.9479207 -1.2403123
