17

C -0.08188734 1.53096699 -0.18941575
N -0.68005508 -1.04012992 -1.19252988
C -0.36621111 -0.89772585 0.24785797
O -0.39258881 -1.90253919 0.92634779
N -0.03069501 0.34868529 0.65861959
C 0.32141546 0.53036849 2.05912916
C 0.52174027 -1.22784409 -2.15150300
H -0.40878872 1.17960666 2.55679155
H 0.61639441 2.27217813 0.20462832
H -1.08647867 1.97476900 -0.20705156
H -1.23869895 -0.26147601 -1.53826461
H -1.24831377 -1.88247154 -1.26617009
H 0.32835725 -0.44421071 2.54656236
H 1.31478714 0.98635076 2.13500579
H 0.23076536 1.28595034 -1.21021315
H 1.16612791 -0.36779517 -1.89641504
H 1.03412887 -2.08468275 -1.68338017
