10

O 2.162108 0.04750636 0.5407247
C -0.92909557 -1.0980465 -1.3865632
C 1.242629 0.42775872 1.2233241
N -0.14377241 1.2709777 -0.76032436
O -1.2485707 -2.1285825 -0.8509161
C -0.122102685 0.68837667 0.66214013
C -0.47546658 0.077266626 -0.6037999
H -0.88609785 1.0584052 1.3413221
H 1.3494393 0.5999087 2.3125572
H -0.9490706 -0.94357115 -2.4784646
