10

C 0.258509 -0.62591696 -1.434764
N 0.11351031 -0.067478135 -0.106676675
N -1.0257108 0.4142066 0.36322734
C -0.66375667 0.7861364 1.5767667
N 0.63710594 0.5417393 1.8312896
N 1.1152407 -0.0019850906 0.74460095
H -0.38151065 -1.5032918 -1.5377916
H 1.3044838 -0.90522796 -1.5513136
H -0.020113679 0.123579495 -2.1772153
H -1.3377581 1.2382381 2.2918766
