10

N 0.99491125 1.4554161 -0.51007557
C -0.13366444 -0.26949978 0.48053545
O 0.33361453 0.16499572 1.6064878
C 0.22306114 0.45808813 -0.8168846
O -0.2819943 -0.042214975 -1.8334043
N -0.9025961 -1.3124945 0.41425276
H 0.8855238 0.95701545 1.3213439
H -1.1876839 -1.8512943 1.2182617
H -1.1892725 -1.5304688 -0.53419346
H 1.2581006 1.970457 -1.3463242
