9

O 0.82608396 0.5549464 -0.8316047
C -0.75747794 -0.59069973 0.20203587
C -0.026468834 -0.4225911 -0.99046385
C -0.35307968 0.51505154 1.178797
C 0.662216 1.0774225 0.44890565
H -0.03521105 -0.9152823 -1.953706
H 1.3240278 1.9126474 0.63528806
H 0.00828597 -0.9273183 1.0209273
H -1.6483761 -1.2041765 0.28982088
