9

O -0.53367900 -1.25459208 -0.18553853
C 0.74116704 0.40340669 0.58712331
C 0.47147837 -0.92242915 0.66142296
C -0.17255378 0.93635063 -0.38761162
C -0.91317494 -0.11427565 -0.81575686
H -0.25254868 1.96395663 -0.71336293
H 1.49095147 0.94631352 1.14517701
H 0.88249930 -1.73600664 1.24089371
H -1.71413937 -0.22272384 -1.53234717
