12

C -1.10556000 -2.02196349 -0.06614631
N -0.72599175 -0.86480883 0.49221302
C 0.11583111 0.02625682 -0.17812031
N 0.45426295 1.11399306 0.36422374
C 1.31627529 1.99750332 -0.39688591
O -1.90151486 -2.63405469 0.83123547
H 0.80835214 2.95867203 -0.53281757
H 0.41418212 -0.33251168 -1.16544631
H -2.17870272 -3.46534016 0.43180492
H 1.60403452 1.60627201 -1.38573113
H -1.02557953 -0.57964999 1.42452656
H 2.22441025 2.19563188 0.18114345
