11

C 0.15978406 0.7806983 1.3860568
C 1.0318965 -0.59961873 -0.4886908
C -0.17311636 0.03474087 0.16947368
O -0.9429422 0.9310146 -0.7048526
C -1.5087627 -0.6014647 0.0049064364
N 0.41640452 1.3005497 2.3844
H 1.4589409 -1.3386973 0.19383214
H 1.8001796 0.14260505 -0.7264635
H -2.149365 -0.16560529 0.79202956
H 0.7030592 -1.1270429 -1.3888296
H -0.79607844 0.64282054 -1.6218619
