11

C -0.5199867 1.1353385 0.48060822
C -0.12751181 -0.23160198 -0.030438283
C 1.2595655 -0.71330047 0.027976437
O 0.280387 -1.1796297 0.9411261
C -0.9883472 -0.7742776 -1.0813932
N -1.6771891 -1.16797 -1.9213916
H -1.5266235 1.109145 0.90738624
H 0.18155508 1.4498767 1.2570041
H -0.5065176 1.8687444 -0.33169666
H 1.6104865 -1.4459416 -0.6959893
H 2.0141819 -0.050383702 0.44680795
