11

N 1.9148718 0.62192273 -1.2088714
C 0.8865344 0.2666615 -0.5652212
C 0.052848306 1.1213951 0.3041449
C -0.93412316 0.38423538 0.7978273
C -0.8053802 -1.0198495 0.27856237
O 0.3518127 -0.99289924 -0.55900353
H 2.3055675 -0.15781957 -1.7354776
H 0.2694646 2.1687446 0.46522188
H -1.7248557 0.6966731 1.4685673
H -1.6678221 -1.3336626 -0.3201033
H -0.6489185 -1.7554009 1.0743535
