17

C -2.4812942 -0.92510813 0.59618974
N -1.3239334 -0.42002434 -0.119977765
C -0.26613915 0.06943353 0.623754
O -0.35307387 0.21277843 1.8366439
N 0.8578133 0.4176619 -0.093668394
C 2.0669603 0.75975925 0.6280897
C 0.9362797 0.34775302 -1.5397807
H -2.265008 -1.8312315 1.177785
H -2.8335254 -0.16011338 1.2918909
H -3.2761867 -1.1384051 -0.12210195
H -1.0921365 -0.9260856 -0.96073586
H 2.8579001 0.01340317 0.46295354
H 1.8316023 0.7991812 1.6912136
H 2.4445152 1.7379948 0.30667338
H -0.017847344 0.63871413 -1.9898692
H 1.6959109 1.0557952 -1.8869078
H 1.2181627 -0.6515068 -1.9021524
