10

C 0.5967168 1.3866665 -0.5828963
O -0.40289253 0.3854209 -0.38633382
C -0.028792948 -0.62519246 0.4305885
O 1.0504587 -0.7138099 0.96496946
N -1.0626404 -1.5062127 0.5790466
H 0.8549161 1.8663876 0.36524427
H 0.14881378 2.110428 -1.2653611
H 1.4985192 0.9537668 -1.023447
H -1.8294901 -1.4640093 -0.071086645
H -0.8256086 -2.3934455 0.9892761
