10

C -0.2347122 -0.42766687 0.13687491
O -0.8708101 -1.3334122 0.923541
C 0.063733496 0.81931245 0.51440245
O 0.8513051 1.6143378 -0.31272176
N 0.039848953 -0.9395168 -1.1198442
H 0.3306456 -1.9075049 -1.0977447
H -0.9083887 -0.98608416 1.8241875
H 0.68642586 -0.3457799 -1.6191281
H 0.28076655 2.2778008 -0.72474027
H -0.23881453 1.228514 1.4751732
