10

C 0.61439496 0.72999958 0.17194221
O 0.59379796 1.41130181 -1.04126504
C -0.12029781 -0.37724508 0.31612992
O -0.06658679 -1.19519346 1.39867980
N -1.05425292 -0.80908813 -0.61012951
H 1.27817952 1.09782288 0.95050354
H 0.07878456 2.22136976 -0.92291065
H -0.94271170 -0.32488108 -1.48931761
H -1.07275053 -1.81455108 -0.71383168
H 0.69144275 -0.93953527 1.94019909
