10

O -0.017565424 -1.3775204 -0.957283
C -0.40554053 -0.38649157 -0.052530468
C 0.68439984 0.009478738 0.9446842
O 0.6342561 1.3854599 0.47299182
C -0.25928652 1.0720552 -0.5041087
O -0.6890428 1.7715722 -1.3663036
H -0.6557075 -1.39387 -1.6806194
H -1.3820808 -0.58333665 0.41131744
H 1.6527182 -0.44468302 0.72728723
H 0.4378495 -0.052664533 2.0045648
