10

O 0.93428946 -0.029836133 -1.5136161
C 0.25088605 -0.69815296 0.8000228
C 0.34588328 0.22864145 -0.2799354
O -1.048785 -0.65507096 1.0588613
C -1.1834251 0.265913 -0.11450874
O 1.2311555 -0.9417651 1.57011
H 1.4676464 0.73663163 -1.7498018
H -1.7406946 -0.23293948 -0.9105089
H -1.6672219 1.1806331 0.23167633
H 1.410266 0.14594543 0.9077005
