11

O -0.4905026 -0.9668633 -1.1035659
C 0.8323481 -0.5263462 -0.90895915
C -1.1815572 -0.12726302 -0.21700382
O 1.0512191 0.7300985 -0.9083767
C -0.047530945 0.366406 0.666498
N 0.07753326 1.0831431 1.6565436
H -1.9370402 -0.6954268 0.3333868
H -1.6182629 0.7425759 -0.7165549
H 0.96906406 1.4017783 2.006554
H 0.7894702 -0.75677645 0.49085352
H 1.5552589 -1.2513258 -1.2993755
