11

O 1.6791008 0.6632712 -0.5163805
C 0.7604029 -0.048237644 0.25185713
C -0.3368549 0.69153863 1.0434107
O -1.3518527 -0.14315356 0.41526768
C -0.42403582 -0.6866953 -0.44022098
N -0.5581058 -1.3746773 -1.4785299
H 1.2611152 0.90054315 -1.3535929
H 1.3177872 -0.75526506 0.8728
H -0.34838054 0.57308555 2.128055
H -0.4580553 1.7394564 0.7537515
H -1.5411212 -1.5598661 -1.676418
