11

O 1.11617589 0.41553527 -0.25393253
C 0.50981066 0.07109389 0.98649541
C -0.92130415 0.56362822 1.08825445
O -1.67797848 0.16140511 1.93391142
C 0.56597135 -0.15288950 -1.33657901
N -0.44323259 -0.91056292 -1.26735534
H 1.12033973 0.14933827 -2.22779113
H 0.52831434 -1.00849196 1.15569021
H 1.11554179 0.57531316 1.74520228
H -1.19176751 1.36189031 0.36686293
H -0.72187118 -1.22625988 -2.19075896
