14

C -0.069563426 0.05799387 0.6450642
N 1.2885648 -0.07843077 0.45291665
C 1.8676252 -0.40047872 -0.84152544
O -0.6981586 0.2555634 -0.5288054
N -0.7106429 0.03981656 1.7474988
C -2.1006985 0.48201743 -0.43661946
H -2.6049318 -0.37370998 0.018279344
H 1.5083476 0.30882114 -1.5879353
H -2.3101113 1.3736366 0.16231778
H 1.6287454 -1.4151843 -1.183326
H 2.9532294 -0.2998023 -0.7624506
H -2.4362833 0.6252934 -1.4649067
H -0.08439235 -0.10406964 2.5331998
H 1.7682694 -0.47146654 1.2462922
