10

O -1.7768657 -1.1268522 -1.3468478
C -0.51946515 0.49017534 -0.15188856
C 0.4800809 -0.47473067 0.25846267
N -0.36277744 1.6060429 0.37389097
O 2.0331438 1.1223345 1.0506479
C -1.7565308 -0.021018947 -0.88426983
C 1.7705187 -0.0066954694 0.68131965
H -2.5938036 0.69353974 -0.9390113
H 2.5575778 -0.77664477 0.5630713
H 0.1681219 -1.5061504 0.3946248
