10

O -1.1516563 -1.884546 0.22718902
C -0.12089334 -1.6077689 0.7899486
C -0.08752717 1.3495798 -1.4681268
N -0.6593921 0.88422763 0.9927973
O 0.7177856 1.0127858 -2.2994668
C 0.40833306 -0.20789987 0.8448775
C -0.09537306 0.75197357 -0.1144214
H 0.5035086 -2.3750615 1.2880057
H -0.85887206 2.1198745 -1.6350987
H 1.3440868 -0.0431648 1.3742956
