11

C -0.11666482 -0.05690584 -0.005673235
C -1.5046651 0.45436466 0.20561686
C 0.98285276 -0.05991804 0.8490796
N 1.6513392 -0.9710501 -0.9674447
N 2.0462174 -0.5583013 0.21588106
N 0.26687422 -0.6559049 -1.1421255
H -1.6391419 1.4278164 -0.2779068
H 1.04534 0.27143037 1.8781773
H 1.2117568 -0.18708558 -1.8090808
H -1.7081944 0.57389057 1.2728181
H -2.2357137 -0.23833627 -0.219342
