11

O 1.2265303 -0.9498145 -1.4635684
C -0.32402703 0.62594247 -0.15384613
C -0.20540613 0.114027135 1.296969
N 0.8305531 -0.869658 0.866549
C 0.6624556 -0.4931363 -0.34241018
O -1.607791 0.5021473 -0.70794684
H 1.8119704 -1.6806576 -1.2115401
H -1.5488411 0.66451603 -1.6565597
H 0.16317488 0.831213 2.0353756
H -1.11957 -0.36691666 1.6504859
H 0.11095107 1.6223369 -0.31350797
