11

O 0.17282583 0.9785904 -1.6920975
C -0.17057826 -0.06981595 -0.8513575
C 0.81992 -0.5860322 0.18922468
N 0.01614642 -0.5442938 1.2119278
C -1.0351033 0.17856708 0.4381201
O 2.0144413 -0.8846616 0.51298755
H -0.57268703 -0.868324 -1.4790063
H -1.1089586 1.241362 0.69611585
H 0.6175006 1.6633784 -1.1760056
H 1.2653136 -0.8121305 1.6724967
H -2.0188205 -0.2966398 0.47759408
