11

N 1.0828401 -0.9210232 1.3365269
C -0.39341995 -0.7959577 -0.68244356
N 0.20523877 1.0778493 0.4944483
N -0.5694661 1.3605102 -0.5990675
C 0.30815774 -0.23687585 0.4315946
C -1.0762984 0.20661576 -1.3424174
H -0.39240906 -1.8430809 -0.9590237
H 0.83647597 -1.8878055 1.476436
H 1.2882556 -0.41297692 2.1834643
H -0.22761056 1.2075251 -1.7454201
H -1.0617645 2.2452195 -0.5940978
