11

N 1.4727743 0.37000266 1.3594872
C 0.43711048 0.19959342 0.43882975
N -0.27602765 1.2323686 0.023970362
N -1.2133093 0.685821 -0.7788047
C -1.0991007 -0.65170985 -0.8911137
C -0.02956102 -1.0231811 -0.10788882
H 2.2838702 -0.19800855 1.1585355
H 1.7330452 1.3432148 1.4463501
H -1.8873645 1.2915891 -1.2140938
H -1.7759478 -1.2331444 -1.5012931
H 0.35451055 -2.0165458 0.06602127
