10

C -0.53912574 -0.9638141 -0.62688994
O -1.2769943 0.039404843 -1.2095823
C 0.12904423 0.018039964 0.897943
O 0.9747427 -0.8288135 0.3938551
N 0.696434 1.2127544 1.1974834
H -1.1495641 -1.6467959 -0.054584276
H 1.6939247 1.3399099 1.0555542
H -0.80563927 0.3673701 -1.9816948
H 0.1759058 1.9196064 1.6919655
H 0.101272054 -1.4576623 -1.3640498
