10

C 0.95420910 1.07277219 -0.10741334
O -0.01811545 1.95480511 -0.53980462
C -0.53754073 -0.65286740 -0.24966785
O 0.38207398 -0.06440347 0.54182856
N -0.98796948 -1.72098750 0.41483920
H 1.55805979 1.57586442 0.64884993
H -0.59247279 1.41840438 -1.11116213
H 1.58326414 0.69614843 -0.92764878
H -1.69396005 -2.29848223 -0.00731636
H -0.64754851 -1.98125402 1.33749541
