10

C -0.63764805 -1.1668333 0.6461292
C 0.5581308 0.96846986 -0.52500683
N 0.6285284 -0.90587246 0.945818
C 1.2168036 0.15234931 0.36371818
C -1.4023489 -0.38822487 -0.24455658
N -0.72443384 0.67326397 -0.7938382
H 2.2542028 0.34112045 0.62889177
H -1.8242494 0.53273636 -1.1456001
H -1.076336 -2.0339663 1.1351289
H 1.0073504 1.8269567 -1.0106843
