10

C 0.03378505 -1.3030617 0.095333226
C -0.21698779 0.51794595 -1.1845498
N -0.033408254 1.3033942 -0.09322559
C 0.1957756 0.8980888 1.193174
C 0.22178893 -0.5401694 1.2155331
N -0.19590068 -0.77718383 -1.1398817
H -0.38912472 1.0228966 -2.1335516
H 0.39845592 -1.0352968 2.1658478
H -0.07131747 2.3040621 -0.24944347
H 0.05693344 -2.3906758 0.13076393
