10

O -0.3779677 1.64112 -1.2168733
C -0.16854589 0.607615 -0.35600314
C 0.51561046 -0.5740595 -0.535686
N 0.40733933 -1.236884 0.65177125
N -0.28802902 -0.5687605 1.5676558
C -0.64807504 0.55822325 0.971254
H -0.036131486 1.4019302 -2.0851276
H 1.0510765 -0.9841923 -1.378678
H 0.78212833 -2.1408064 0.88330823
H -1.2374055 1.2958145 1.4983788
