10

O -0.3102468 -1.6518854 -1.000912
C -0.06277298 -0.12644823 0.9602288
C -0.024903154 -0.48070583 -0.39573497
N 0.5644053 1.6882405 -0.18378545
N 0.37258607 1.2552104 1.057487
C 0.38689795 0.6776747 -1.0461053
H 0.52664506 0.81196195 -2.1120975
H -0.82216114 0.8811821 1.2078224
H -0.54209584 -2.3142707 -0.3399798
H -0.08835453 -0.7409595 1.8530768
