11

O -1.1363236 0.3008717 -1.0406578
C -0.6092101 0.8841222 0.13362074
N 0.76985604 -1.1135865 0.61140573
C 0.7631263 0.32545316 0.49358612
C 0.2424423 -1.992303 -0.029772742
O -0.17228054 -2.9573584 -0.54597217
H 1.0952991 0.7510453 1.4471512
H -0.54480004 1.9797993 0.058870923
H -1.3192122 0.6380144 0.92753845
H -0.5906284 0.5612427 -1.7917991
H 1.5017312 0.6226987 -0.26397145
