10

O -1.8601828 0.77823013 1.8393451
C -1.5018508 0.45268637 0.77722704
C -1.1084865 0.07605799 -0.4268023
C 1.2366319 -0.17972021 0.17272498
N 0.12775134 -0.5352022 -0.70390075
H 2.1235423 -0.73488617 -0.1427614
H 0.9987291 -0.49147576 1.1948618
H 1.4661087 0.8959064 0.18052626
H -1.8557404 0.1605625 -1.211189
H 0.37349722 -0.4221592 -1.6800318
