10

O -2.06903175 -1.70658612 0.50575103
C -0.98302425 0.22109361 -0.63361531
C -1.55657610 -0.80069934 -0.02267464
C 1.15520795 -0.00663611 0.50679602
N 0.40302266 0.46042122 -0.65101699
H -1.64345088 0.83418515 -1.24086101
H 1.06504384 -1.09547428 0.57647258
H 0.82002940 0.43275959 1.45773231
H 2.21189179 0.22711869 0.35471410
H 0.59688726 1.43381747 -0.85329858
