10

N 0.22619464 1.7676711 0.39411303
C -0.20100568 0.48005643 0.16410194
N -1.4025141 0.049752485 0.36118856
O -1.3359348 -1.3402845 0.10360538
C -0.0795025 -1.6970737 -0.25873905
O 0.28344136 -2.8096411 -0.52124727
N 0.64492667 -0.5134236 -0.2528997
H 0.74929583 2.1739507 -0.36993405
H -0.53360176 2.3692567 0.681893
H 1.6487004 -0.48026413 -0.30208194
