10

N 0.99469304 -0.031036766 0.16600412
C -0.033175036 0.40109262 -0.64906013
N 0.114682935 0.9017003 -1.8003253
O 1.142226 -1.1406717 2.1978645
C 0.5244329 -0.6317751 1.31406
O -0.82920206 -0.5513422 1.2791244
N -1.2078422 0.19288553 0.11974526
H -1.9063216 -0.37123427 -0.35026342
H 1.9682137 0.033632446 -0.07388949
H -0.7677072 1.196749 -2.2032597
