10

N 0.60665339 -0.67572695 -0.85305455
C -0.15283864 0.16338641 -0.03551659
C 1.12922457 -1.74016573 -0.19144904
O 0.67792320 -1.55667860 1.06594704
C -0.08674163 -0.40921808 1.17625976
N -0.83325711 1.26443296 -0.55745913
H -0.22754166 1.90182328 -1.05811883
H -1.34084711 1.77049198 0.15721909
H 0.71896833 -0.55595250 -1.84775685
H -0.49154325 -0.16239265 2.14392887
