10

N -0.567224 1.1645141 -1.287064
C -0.15446813 0.25002375 -0.32565472
C 0.6863375 -0.8114362 -0.395863
O 0.6898188 -1.4133377 0.8451671
C -0.14785153 -0.67508215 1.5751051
N -0.6815312 0.32388642 0.95302814
H 0.14489113 1.4205544 -1.9554493
H -0.97309655 1.9845778 -0.85795957
H 1.3012418 -1.2678933 -1.154842
H -0.29811773 -0.975807 2.603532
