10

O -0.38889304 2.085622 1.2001443
C 0.5854845 -0.97111 -1.4171858
C -0.18149851 1.2444383 0.1819727
C -0.092232846 -1.1255666 -0.17422129
N -0.31933197 0.013092328 0.6662334
N 1.3352858 -1.4686991 -0.5354553
H -0.2930253 2.9772615 0.8407776
H -0.5143864 -0.16181995 1.6514584
H 0.6321378 -0.63368326 -2.4414415
H -0.76354015 -1.959535 0.027717434
