11

C 1.7267712 -0.8236544 -0.29478735
C 0.40012106 -0.26229057 -0.3276553
N 0.21556698 0.514852 0.71395105
C -1.1176093 0.9119071 0.7390569
C -1.6670291 0.40559533 -0.38411325
O -0.7190724 -0.32930937 -1.0696789
H -1.5399694 1.5443121 1.5038316
H 1.718709 -1.7828654 0.2340478
H 2.2518246 -0.91315717 -1.2456427
H 1.3730689 0.2602718 0.96954083
H -2.6423814 0.4743384 -0.8385509
