11

C -0.53054255 -1.0794338 -1.4122195
C -0.015702054 -0.2495781 -0.2871087
N 1.1596407 -0.2594896 0.2488697
C 1.0891025 0.694558 1.2551937
C -0.14443038 1.2352598 1.2658718
O -0.86981595 0.6375059 0.27565268
H -1.4227189 -1.6353611 -1.1076909
H 0.24524319 -1.7861156 -1.7111998
H -0.79885936 -0.4593248 -2.272051
H 1.9345381 0.9139951 1.8922883
H -0.64645547 1.9879841 1.8523937
