10

C -1.10986153 -0.01158955 0.78188053
C 0.80225193 -0.30686561 0.55309324
N 1.02843511 -1.02288961 -0.73517833
C 0.26735628 -0.17474514 -1.32333058
N -0.33036488 -0.86685535 1.33863318
C -0.14230662 0.68860093 -0.14688964
H -2.17392459 0.11449942 0.97209165
H 0.01834008 -0.15290031 -2.38300107
H 1.69490966 -0.04018647 1.11848801
H -0.05483491 1.77293139 -0.17578699
