10

C -1.083138 0.2430789 -0.2515794
C -0.31953463 -0.5971887 -1.048132
N 0.9506078 -0.89036787 -0.7639201
C 1.4443808 -0.32513022 0.33458388
N 0.8126998 0.49498585 1.1734829
C -0.4549696 0.77166104 0.86883855
H -2.1151218 0.475181 -0.49061993
H -0.7317387 -1.0541152 -1.9461042
H 2.4790444 -0.5588029 0.5764631
H -0.98222953 1.4406978 1.5469872
