10

C 0.71898055 -0.8164583 -0.41139206
C -0.92945826 -0.6956427 0.57507235
N 0.7244177 0.050499897 -1.4898057
C 0.28272876 1.0251445 -0.73680913
N -0.42024273 -1.5830784 -0.23760612
C -0.18699951 0.56464446 0.56887364
H -1.8203741 -0.8923856 1.1689992
H 0.27570784 2.0624819 -1.0686858
H -0.23900177 1.2516245 1.4124618
H 1.5942414 -0.9668303 0.21889167
