10

C 0.30721787 0.44600746 0.47190422
C 0.118170135 -1.0145537 0.020082852
N -1.3591661 -0.88625413 0.14049557
C -1.1982502 0.3192369 0.55276436
N 0.62364155 -0.675737 -1.3412381
C 0.8108073 0.53269607 -0.9550107
H -1.9826514 1.0097289 0.8564821
H 1.2138579 1.349026 -1.5521233
H 0.5660967 -1.8863853 0.49642128
H 0.9002765 0.8062347 1.310222
