10

O 1.0002204 1.9937606 -0.26033914
C -0.131704 0.02463299 0.4142772
C 0.6266377 0.512048 -0.68542516
O -0.18107197 0.67246795 1.4751158
C -1.3414414 -2.320201 0.12713592
C -0.786822 -1.2622364 0.26282874
H 0.59801835 1.9680628 0.6655751
H 1.7534401 1.1986917 -0.29821512
H 0.29914224 0.47434667 -1.7160007
H -1.8364192 -3.261573 0.015047295
