10

O -0.87401751 1.79563153 0.89674122
C 0.06821161 1.00106390 0.28069329
C -0.27483484 -0.25969411 0.01429608
O -1.47334144 -0.79291912 0.38188726
C 0.59759131 -1.14735213 -0.68969242
C 1.33558060 -1.88510713 -1.28834447
H -0.43501727 2.50880519 1.37209877
H 1.02076766 1.42264034 -0.01388100
H -1.95340241 -0.10376750 0.86533119
H 1.98846245 -2.53930144 -1.81913003
