10

O -0.5909034 2.0695965 0.39993423
C 1.0873331 -2.3208988 -0.654501
C -0.32508913 -0.19311228 -0.014293405
O -1.663566 -0.40067095 0.1315466
C 0.2429046 1.0029768 0.14354561
C 0.43807524 -1.3523301 -0.3584709
H -2.0557542 0.44856107 0.38472626
H -0.101264544 2.7599888 0.859189
H 1.6615949 -3.179454 -0.91730237
H 1.3066697 1.1653422 0.025626056
