10

C -0.12069062 0.50190926 0.93225211
C 0.49019082 0.89979408 -0.28757610
N 1.01579144 -0.30520900 0.41391342
C -0.88336622 0.28500921 -0.34750253
N -0.76965081 -1.12320601 -0.75156481
C 0.36543992 -1.41325522 -0.27863672
H -0.23549181 0.92918114 1.91757214
H 1.04580626 1.75708383 -0.63879940
H -1.77399037 0.84250504 -0.61551545
H 0.86596145 -2.37381236 -0.34414229
