10

C -0.29477432 0.6077212 0.8242306
C 0.6354716 -1.3433235 -0.011530573
N -0.4837807 -1.3519216 -0.59755176
C 0.34703422 0.9212718 -0.40427953
N 1.0106089 -0.03799145 0.5230061
C -0.8835095 0.053953696 -0.44589698
H -1.830043 0.38295683 -0.860234
H 1.3027856 -2.1890724 0.11840649
H 0.77167636 1.8039796 -0.859821
H -0.5754691 1.1524256 1.7136707
