10

C 0.34348384 0.9517712 -0.27899164
C -0.5828282 -1.160776 0.15204896
N 0.44909343 -1.3353724 -0.5960641
C 1.112094 -0.15196747 -0.6653972
C -0.7400278 0.24366546 0.7635482
N -1.1170372 1.0607895 -0.2105789
H -0.9996248 0.3955798 1.8205897
H 0.8121649 1.929497 -0.19401334
H 2.1652553 -0.10873419 -0.91928935
H -1.4425738 -1.8244528 0.1281476
