10

C -1.30471293 -0.20615352 -0.39425241
C 0.10491791 -0.58036076 -0.73904319
N 0.80134713 -0.75176727 0.57522386
C 0.98770285 0.48154242 -0.17736737
C 0.12142107 0.49449068 1.02167072
N -1.30350489 0.45887971 0.69262632
H -2.19976671 -0.44937172 -0.95798159
H 0.41045987 -1.23642681 -1.54489621
H 1.95417155 0.87999742 -0.45233816
H 0.42796427 0.90916929 1.97635805
