10

O -0.25898794 -2.15441392 -0.39186540
C -0.20461071 -0.97624910 -0.20009182
C 0.42014362 0.56322355 1.58448797
O 1.01601113 1.37265342 0.94003635
C -0.26280349 0.09704049 -1.24473790
O -0.14271478 -0.58674072 1.14135303
H -0.55135693 -0.37776345 -2.18152810
H -0.98668070 0.87022190 -0.97198810
H 0.71532575 0.57541518 -1.34544380
H 0.25567400 0.61661253 2.66977768
