10

O -1.7767581 -0.8776977 -1.030307
C 1.8885353 -0.6495796 0.040148955
C 0.55926657 -0.18371947 0.4965037
N -0.2708677 -0.38370743 1.4067473
O 2.45368 -0.13556014 -0.89238954
C -1.6589026 0.25983173 -0.6430469
C -0.603339 0.66871697 0.34052438
H -2.316201 1.0777622 -0.99723303
H -0.5818145 1.7100722 0.6547648
H 2.3064008 -1.4861187 0.6242874
