10

C 0.50173837 -0.2113718 -0.34985235
C 0.18727827 1.2639735 -0.2062761
O 1.4389465 -0.60631627 -1.0025682
C -0.43062776 -1.1617211 0.37535164
H 0.8397413 1.8502579 -0.8565567
H -1.4302521 -1.1066161 -0.069890834
H -0.52953917 -0.87728864 1.428093
H 0.3406892 1.5729936 0.8343164
H -0.05608115 -2.1853068 0.298055
H -0.86189324 1.4613961 -0.45067182
