10

N -0.17276374 1.8264796 1.0100974
C -1.0591519 1.0962797 1.3466487
C 0.007447969 0.018074123 0.66895664
C 0.75882864 0.023160476 -0.64289325
C -0.52743053 -0.7240132 -0.5250031
H 1.6920377 -0.53340983 -0.65609616
H -1.4019301 -0.30053884 -1.0083448
H 0.76763487 0.9395644 -1.2194073
H 0.449231 -0.5382734 1.4873914
H -0.51390374 -1.807323 -0.46134937
