10

N -0.4126094 -0.43202603 -0.9837937
C 0.5598946 -1.1526194 -0.44572532
O 0.8909312 -0.8605835 0.7585095
C -0.4817909 0.76631165 -0.114326715
C 0.07182268 0.3516508 1.1773317
N -0.561396 1.9926478 -0.32658115
H 0.09652113 1.7833915 0.9533169
H -0.63176143 -0.053835995 1.9131724
H -0.63514507 -0.4573448 -1.9675688
H 1.1035331 -1.937592 -0.964335
