10

N 0.3612117 0.91718566 -0.3003999
C -0.5253498 -0.8795663 0.58990747
O -0.8133501 0.23893642 1.363165
C -0.2734645 1.2667582 0.8033238
C 0.24120675 -0.49570066 -0.52113765
N 0.7998052 -1.0006268 -1.5731987
H -0.3620486 2.2487419 1.2418092
H 0.8661909 1.5143651 -0.93788344
H -0.9379044 -1.8093448 0.9433577
H 0.64370275 -2.0007489 -1.6089437
