10

N 0.79157245 -0.93483394 -0.0360921
C 1.0219101 0.13852362 -1.0181602
C 0.66782063 -0.5263606 1.2858081
N -1.5107752 0.59187645 -0.70813555
C -0.21848664 0.31264818 -0.8546571
O 0.10286975 0.4670134 1.71199
H 1.0933938 -1.2795484 1.9721136
H 1.9273965 0.44190007 -1.5201145
H -1.7216537 0.8874531 0.24094203
H -2.1540477 -0.09867188 -1.0736942
