11

N -0.067862645 -1.6399487 0.12945844
C 0.20323697 -0.57570857 0.9303474
O 0.7867809 -0.62662303 1.9943436
C -0.24944443 0.7454338 0.36027643
C 0.254998 1.1947047 -0.9405925
O -1.0679542 0.69775814 -0.8031273
H -0.7266152 -1.5280586 -0.6238368
H 0.13197799 -2.5631034 0.48578912
H -0.53075194 1.483204 1.1083075
H 0.33225438 2.2621667 -1.1435857
H 0.9333802 0.55017525 -1.4973804
