11

N 0.3007923 2.4492428 1.1741362
C 0.05289875 -0.59658706 -0.5055054
O -0.09193676 0.34400865 0.48125258
C 0.43620288 1.5945891 0.26138335
C -0.6200997 -1.8756914 -0.095802456
O 0.63849616 -0.39057893 -1.531719
H 0.9235432 1.6943156 -0.7089388
H 0.72788835 3.3255503 0.8868063
H -0.46508378 -2.629399 -0.8685276
H -1.6898137 -1.6971653 0.04790296
H -0.21288753 -2.218285 0.85901177
