12

N -0.36238461 -0.79385823 -1.14526420
C 0.11714122 -0.21877326 0.98590518
C 0.50039839 0.13091335 -1.41068117
O 0.05542303 2.03189505 -0.02159635
C 0.71039743 0.77698192 -0.03585169
N -0.86978556 -0.97325707 0.20313598
H -0.81639142 -1.96983276 0.40235529
H -0.84768330 -1.33349082 -1.85017558
H -0.36481831 0.30548308 1.81260170
H 0.90447299 -0.87692021 1.36858925
H 1.76281051 0.98684452 0.16851221
H -0.78958047 1.93401427 -0.47753050
