12

N -0.92019176 -0.41556725 -1.026506
C -0.31126162 0.6917187 -1.2969964
C 0.6132694 -0.51127404 0.62935865
O 0.065112844 1.8910168 0.74293435
C 0.5973411 0.86451715 -0.07378665
N -0.64822924 -1.1323489 0.20641054
H 1.6036566 1.1908871 -0.34616867
H -0.89480394 1.7923646 0.76068324
H 1.4748108 -1.0959568 0.28967008
H -0.51269805 -2.107912 -0.04973453
H 0.6436221 -0.39879984 1.7142481
H -1.7106284 -0.76864564 -1.5501125
