12

N -0.7434742 -1.0220433 -1.0306245
C -0.23418835 -0.63452196 0.27895784
C 0.5679483 0.6651037 0.08318828
O -0.16954085 1.5756897 -0.6789306
C 0.89068544 1.2568313 1.3941664
N 1.1538216 1.675757 2.4373028
H -0.04087446 -1.5291673 -1.560477
H -1.5572999 -1.6143756 -0.9492698
H -1.0922946 -0.41340926 0.9250403
H 0.387468 -1.3897728 0.7766631
H 1.5280919 0.42522007 -0.40322143
H -0.6903427 1.0046881 -1.2727953
