15

N -1.6059422 0.15946072 -1.2620815
C -0.23719141 0.21881849 -0.86559427
O 0.060059715 1.1745138 0.16732734
N 0.12101115 -1.0815293 -0.3429737
C 0.6520459 0.5022369 1.2733519
C 0.19419889 -0.9481879 1.1119412
O 0.45804682 0.6009019 -2.009649
H -0.80106014 -1.0949824 1.5455087
H 1.7494471 0.57433474 1.2230737
H 0.31208548 0.97678906 2.1999273
H -2.1819751 -0.049647324 -0.45531136
H 1.2935731 0.9813737 -1.716507
H 1.0011381 -1.3741908 -0.7533847
H -1.8894095 1.0417901 -1.670501
H 0.8739722 -1.6816819 1.5548723
