11

O -2.297405 -0.62274545 -0.4219071
C -1.153796 -0.37383616 -0.16069119
C 0.113897935 -1.212815 0.03992015
N 0.75818783 -0.05042661 0.7279504
C 0.8582295 0.9821265 -0.28382638
C -0.44136155 0.8103837 0.41401747
H -0.05995382 -2.0401309 0.7340997
H 0.6566758 -1.5753152 -0.8392305
H 0.95520425 0.69857836 -1.3304553
H 1.4547296 1.83747 0.01941721
H -0.8444087 1.546711 1.1007057
