11

O -2.20649565 -0.18093137 -0.84638117
C -1.09096185 -0.02424982 -0.43769067
C 1.29702500 -0.77309517 -0.64975441
N 0.83508047 0.29011982 0.33089171
C 0.26136918 0.24392256 -1.05232473
C -0.48675766 0.04732570 0.98147696
H -0.48198158 -0.83961573 1.61700197
H 0.82689733 -1.70984887 -0.31667916
H 0.45299767 1.01080319 -1.79688448
H 1.46132483 1.02008325 0.64200758
H -0.86849789 0.91548669 1.52833656
