11

O 1.0518589 -1.277834 -1.681263
C -1.0508398 -0.5886654 1.011754
C 0.50117934 -0.5695011 -0.8914251
N -0.5000138 0.8684688 0.24678658
C 0.9456936 0.6283778 -0.021994894
C -0.9380501 -0.37306437 -0.44565433
H -1.0310615 0.83235115 1.2298472
H 1.3893892 1.4231791 -0.6294946
H -0.12647791 -1.0123566 1.4311391
H 1.5483042 0.44819647 0.8716515
H -1.7899824 -0.37915176 -1.1213464
