10

O 1.9468343 -0.4192278 -0.43659934
C 0.5693977 -0.5425376 -0.4696597
N -0.018926602 0.62715065 -1.1093527
C -0.9206875 1.0308872 -0.30112526
C -0.91714895 0.20284685 0.9386144
N -0.014329495 -0.69437057 0.86864555
H 2.2655106 -0.98465997 0.2772191
H 0.23395434 -1.4190607 -1.0506476
H -1.565974 0.33097872 1.8005695
H -1.5786301 1.8679931 -0.5176639
