11

C 0.63006955 -0.9954454 0.07873441
C 0.5212274 0.42737412 0.64772296
O 0.018386591 0.6976447 1.8258538
C -0.80689764 0.39348403 -0.7843437
O -0.0664181 -0.75144327 -1.137788
H 1.2448903 1.1201631 0.1745727
H -0.7098219 1.2060832 -1.507306
H 1.6475693 -1.354923 -0.10435285
H -0.6989802 0.7815029 0.6587266
H 0.08630429 -1.6854302 0.7381056
H -1.8663298 0.16098985 -0.5899255
