11

O -0.56091255 -1.8214331 -1.1382469
C -0.15991284 0.9495033 0.5897762
N -0.8533628 -0.34852162 0.7921438
C 0.6221677 0.40823755 -0.59825623
C -0.09016641 -1.0105389 -0.24179332
O 1.2676591 -0.7798624 -0.06925937
H 1.1991924 0.9358078 -1.351259
H -0.8661418 1.7423809 0.33012918
H -0.7035826 -0.7754375 1.7035532
H 0.47093305 1.2559452 1.4304359
H -0.32587332 -0.55608124 -1.4472237
