11

O -2.0112665 0.9914912 1.3813809
C -1.0800949 0.61373323 0.72751147
N -0.97624516 -0.5486954 -0.013489452
C 0.4059743 -0.8083459 -0.35679436
C 0.9414096 0.629526 -0.3245879
O 0.08355689 1.3105363 0.5906678
H -1.6099033 -1.292594 0.23155037
H 0.9067935 -1.4458163 0.38174608
H 0.5108083 -1.2628303 -1.3458825
H 0.8595811 1.107973 -1.3059566
H 1.9693866 0.7050219 0.033854034
