11

O -1.1209699 1.2529968 -0.48570842
C -0.61451316 0.7319571 0.71917075
C 0.4631489 -0.29766846 0.45287117
C 0.42732096 -1.1353478 -0.74230254
O 1.2825689 0.008891251 -0.67033243
H -0.3459078 1.4248236 -1.0397072
H -0.19597913 1.5248209 1.3595155
H -1.4469247 0.2694156 1.2585329
H 1.0113547 -0.655423 1.3257712
H -0.40794054 -1.0331484 -1.4322451
H 0.94784206 -2.0913177 -0.74556595
