9

O 2.5058305 -0.30388764 -0.05124393
C 1.4282278 0.22068144 -0.13203621
C 0.21215503 -0.23461837 0.6630421
C -1.0245234 -0.09516336 -0.106631376
C -2.0141778 0.03747792 -0.77737564
H 1.2526054 1.098818 -0.78834486
H 0.16199213 0.39388955 1.5623692
H 0.37559146 -1.2650605 0.99651915
H -2.8977008 0.14786299 -1.3662984
