9

O 1.2727193 -1.9965287 -0.5760731
C -0.56669044 0.7452042 0.7143049
C 0.55765814 0.02667321 0.29244345
C 0.6093934 -0.91752017 -0.83707106
C -1.5507021 1.3709761 1.0462898
H -0.41588622 -1.0409987 -1.2693069
H -2.4148517 1.9325857 1.3305079
H 1.4587437 0.064244606 0.9044738
H 1.0496157 -0.18463632 -1.6055688
