9

N -1.2650646 0.6594673 1.1234441
C -0.23072194 0.24414884 0.5184558
C -0.15243395 -0.30169284 -0.82888466
N 1.0006213 -0.6834642 -1.3089925
N 1.991253 -1.0164454 -1.7297814
O 0.9759051 0.27938294 1.1345391
H 0.79436225 0.65860814 2.008415
H -2.106132 0.57316864 0.5577121
H -1.0077891 -0.41317338 -1.4749078
