9

N -0.8865851 -0.5760804 -1.224303
C 0.23380996 -0.14706582 -0.5518207
C -0.052519266 0.3668322 0.7880059
N 0.95964473 0.80412906 1.4872309
N 1.8354683 1.177526 2.088759
O 1.347133 -0.15718812 -1.0437133
H -0.6998248 -1.088818 -2.073377
H -1.707258 -0.8463506 -0.7084525
H -1.0298687 0.46701577 1.2376708
