9

N 1.63091731 0.04791373 -0.72086103
C 0.36895886 -0.28585645 -0.76384544
C -0.50667627 0.04852795 0.35008843
N -1.74547545 -0.20025511 0.45893964
N 2.72098707 0.33098506 -0.69070372
O 0.14579901 0.69521003 1.34649557
H 0.03412156 -0.80424822 -1.64733862
H -2.11431917 -0.69460414 -0.35005224
H -0.53431280 0.86232725 2.01727751
