9

O 0.13608128 -0.48739055 1.5744456
C 0.34364098 0.11366463 0.33739072
N -0.531806 1.2680342 0.07748642
N -1.1290783 1.1172063 -0.9923178
N -0.8233531 -0.18023185 -1.6074116
C -0.011476602 -0.76408637 -0.82188165
H 1.3694243 0.49624622 0.19546174
H 0.25963768 0.18956593 2.251876
H 0.3869298 -1.7530087 -1.0150497
