11

C -0.13566355 1.50961234 -0.08282819
C 0.21090346 -1.31378359 -0.28542520
O 0.79510714 -0.56987441 0.76127127
C 0.55360785 0.76743599 0.78329725
O -1.15913857 -1.49143947 -0.14846203
H -1.61443179 -0.66467695 -0.33666345
H -0.61520055 1.12526933 -0.97715525
H 0.65574382 -2.30555608 -0.21179305
H 0.47668400 -0.84060701 -1.24506713
H -0.21487379 2.57442189 0.09904262
H 1.04726170 1.20919783 1.64378300
