11

C 0.75685066 -1.0293881 0.62195647
C -0.28242752 0.7573378 -1.069383
O 1.3998476 0.055437062 0.25217918
C -0.96774596 0.43245983 0.1221065
O -0.80799097 -0.8136373 0.57732576
H 0.041313656 1.013811 0.48751825
H 0.19380413 0.024260344 -1.703286
H 0.8628418 -1.9108568 -0.030614102
H -0.24728227 1.7955471 -1.3882302
H 0.8961046 -1.3143438 1.6736274
H -1.8453157 0.98937297 0.45679978
