10

O 0.21406327 2.2114851 0.39210168
C 0.11943174 0.883098 0.1624075
C -1.0030963 0.19481589 -0.21450298
N -0.57002705 -1.1181737 -0.31092587
C 0.7437516 -1.140504 0.0020509392
N 1.1960937 0.060123622 0.29558766
H 1.1298311 2.3753538 0.65178335
H -2.0195067 0.49150634 -0.41207245
H -1.1379803 -1.9080168 -0.5689358
H 1.3274391 -2.049688 0.002506168
