10

O 2.1370387 0.15053287 0.62433463
C -0.20531267 -0.61873335 0.95830256
C 0.9822954 0.06767237 0.28618982
N -1.3655844 -0.39091063 0.102031514
C -0.9415727 0.2968157 -0.88511884
N 0.4153254 0.609127 -0.86306244
H 0.92480433 1.1439704 -1.5480732
H -1.5604675 0.6367138 -1.7098855
H -0.37284485 -0.20492199 1.9581738
H -0.013681791 -1.6902661 1.0771075
