9

O -0.93733776 0.067057624 -1.2678889
C 1.0373347 -0.99140894 -0.44204846
C -0.08112505 0.6929462 0.89257926
O -0.38088214 1.8288417 0.6283463
C -0.29845265 -0.41834378 -0.13840885
N 2.0938606 -1.4038906 -0.6537273
H -0.90116644 -1.2106055 0.3291747
H -0.8958406 1.0375372 -1.2057215
H 0.36360943 0.3978661 1.8576949
