9

O -1.1202093 0.36543983 -1.0501866
C 0.07318842 -0.09223443 -0.51332617
C 0.4870434 0.741922 0.70254976
O -0.22861755 1.6270543 1.0976628
C -0.0028118151 -1.5070546 -0.06558347
N -0.052521046 -2.5951133 0.3174366
H -1.4786268 1.0006996 -0.40599966
H 0.87484723 -0.027194273 -1.2632776
H 1.4477074 0.4864809 1.1807246
