11

C 0.54378787 -0.58058002 -1.08924508
N -0.59699041 -2.76461468 -0.34800239
C -0.04364286 -1.78613304 -0.66625865
C -0.09524658 0.75896670 1.01935972
N -0.18960315 0.57719202 -0.46174391
H -0.70501264 1.60547255 1.34910147
H 1.60655237 -0.47214728 -0.89766623
H 0.95519591 0.92845243 1.26051213
H 0.13150784 1.42302540 -0.93292583
H -1.17292380 0.47983261 -0.71734016
H -0.43362413 -0.16946650 1.48420896
