12

O 0.42414492 -0.5472743 -1.7113267
C 0.10639613 0.51981 0.53953165
C -1.0535908 -0.4096263 0.8734306
O -0.8735099 -1.514406 1.3313631
C 0.09568958 1.0013638 -0.887285
O 1.3056661 -0.16485058 0.80923265
H 0.9224069 0.37820384 -1.897984
H -0.0134413745 1.4306048 1.1554445
H -0.93222106 1.1691738 -1.2303799
H 1.0248635 -0.9313532 -1.0284169
H 1.0583574 -0.91312915 1.3813667
H -2.0647614 -0.018516935 0.6650232
