12

O -0.66537267 -1.4522476 0.88064665
C -0.061629448 -0.22346061 1.2001274
C 0.44509873 0.45316592 -0.07184508
O 1.3256996 -0.42570844 -0.7183882
C -0.7087636 0.77469146 -0.9983876
O -0.71808 0.3759173 -2.1380677
H -0.030883618 -1.907979 0.30793458
H 0.78338087 -0.34539288 1.8925154
H -0.81691474 0.39965275 1.6922457
H 0.9391114 1.4047012 0.18691576
H 1.0308623 -0.4571148 -1.645682
H -1.5225089 1.4037746 -0.58801466
