11

N 0.13891722 0.38727749 -1.40475973
C 0.22041701 -1.69283274 0.70203433
O 0.01382485 -0.58075214 1.32494735
C -0.25539401 0.65363751 0.98558576
C -0.38237243 1.16582743 -0.36713743
O -0.93519515 2.23738910 -0.57781997
H 0.13760420 -1.75062558 -0.37645375
H 0.36154189 -2.54055269 1.35513377
H -0.46714818 1.28481008 1.84042762
H 0.15387166 0.92253227 -2.26273865
H 1.01393296 -0.08671090 -1.21921954
