11

N -0.068767235 -1.6388382 0.13321365
C 0.20505346 -0.5754028 0.9317515
O 0.7908045 -0.62683374 1.9941664
C -0.24960364 0.74472976 0.35996887
C 0.25658005 1.1941681 -0.9421389
O -1.0678073 0.6947592 -0.8024796
H -0.7277763 -1.5222381 -0.62263966
H 0.12617154 -2.5636263 0.484886
H -0.5292755 1.4851775 1.1063687
H 0.33174366 2.261329 -1.1450919
H 0.93287677 0.5467754 -1.4980053
