11

N -1.0871233 -0.739641 0.65729874
C 0.1851235 1.0602006 -0.4210761
O -1.1199368 1.3933842 1.4631333
C -0.6984683 0.61174196 0.6256866
C 1.4094236 -0.64495707 -0.5980647
O 0.7232523 0.19010296 -1.3395993
H -1.1839669 -1.2016033 -0.23741621
H 0.2408862 2.1087458 -0.6827688
H 2.0162969 -0.24285501 0.20149538
H 1.4192649 -1.6863095 -0.9070269
H -1.9047524 -0.8488094 1.2383379
