11

N 0.10523308 0.27170852 -1.78237687
C 0.88613178 0.32820748 -0.68022792
O 2.10239871 0.14133534 -0.64931861
C 0.36205382 0.69485308 0.62969606
C -0.10010464 -0.51505942 1.35538369
O -1.41693730 -0.22225907 0.80894948
H -0.07797464 -0.47271745 2.44759670
H 0.57028442 0.17113838 -2.67524241
H -0.85470241 0.56893282 -1.74710920
H -1.76512914 0.53675822 1.30400383
H 0.18874632 -1.50289802 0.98864476
