11

N 0.28068665 0.8944267 -1.5436912
C 0.719211 -0.015119961 0.70208824
O -1.2296715 0.33769453 1.0418158
C -0.4298283 -0.8778201 1.0756634
C 0.8947395 -0.0071195723 -0.7450169
O 1.6943064 -0.86777645 -1.1126367
H -0.253507 1.6495832 -1.1494349
H -0.39997572 -1.3353184 2.0681431
H -0.8502761 -1.5611556 0.33402085
H -1.0051433 0.84512216 1.8383884
H 0.5794583 0.93748343 -2.50934
