11

N 1.6176682 -0.066753596 -0.29359415
C 0.47580802 0.17941496 -0.9903711
O 0.37216273 0.14490299 -2.19966
C -0.71718955 0.46831867 -0.114622876
C -1.1572456 -0.52088714 0.8739166
O -0.4698925 0.65637654 1.2744503
H 1.6551026 0.1883134 0.68142307
H 2.474718 -0.18341337 -0.81303984
H -1.4482647 1.1385612 -0.5597649
H -2.2099407 -0.5604576 1.1535617
H -0.5929265 -1.4443762 0.9877007
