10

O 1.7072737 -1.7783253 0.82714707
C 1.1513859 -1.4677218 -0.19889642
C 0.19717345 -0.33866233 -0.26299945
N -0.38987026 -0.038366403 -1.3917843
O -1.189466 1.0313134 -1.1183618
C -1.0669279 1.3599044 0.18056099
C -0.19866699 0.52910864 0.79517674
H 1.3170989 -2.0020232 -1.1529409
H -1.6624027 2.2033257 0.5008002
H 0.13440223 0.5014467 1.8212975
