10

C -1.3191506 0.28537235 0.07324829
C -1.2330804 -1.1412367 -0.06756747
C 0.11494991 0.5787622 -0.0054648146
C 0.80297774 1.7621033 0.45293653
N 0.8263055 -0.6518358 0.0004254937
N 1.3852879 2.6947896 0.80553204
N -0.0011580689 -1.6534879 -0.0699344
H 1.8231803 -0.80350417 -0.017589994
H -0.3340733 0.7618971 -1.065372
H -2.0652387 -1.8328599 -0.106213704
