10

O 0.42997986 0.3832232 -1.9541285
C -1.1568172 0.090814434 0.72375757
N 1.0787345 -0.96810347 0.5065709
C -0.083654925 0.9283648 -0.9674722
C 0.24741681 0.039721634 0.4534014
N -1.491049 0.56387013 -0.43085763
H 0.91413474 -1.8014947 1.0493828
H 0.024372058 2.0053809 -0.74584293
H -1.7930099 -0.24534717 1.5406886
H 1.8298929 -0.9964299 -0.17549999
