10

O -0.042547 -1.3113132 1.170501
C -0.81471395 1.4323236 1.0066458
N -1.7138911 0.9782444 0.2692677
C 0.20973916 -0.7193835 0.13878773
C -0.27019525 0.6848217 -0.10477349
N 0.9856459 -1.2365707 -0.8574523
H 0.10942722 1.203341 -0.9861631
H -0.6919593 1.9997368 1.9204601
H 0.9972854 -0.818266 -1.773501
H 1.2312088 -2.2129338 -0.7837726
