11

C -1.1441165 -0.31333613 0.706331
N -0.05766206 0.65832174 0.64008987
C 1.1035862 0.18444206 -0.081984416
C 0.8293601 -0.17163782 -1.4980901
N 0.5559591 -0.4190081 -2.5931191
H -1.5145295 -0.63921463 -0.2771822
H -1.9740849 0.12789755 1.2659637
H -0.8020767 -1.1973054 1.2564409
H -0.38880414 1.5199455 0.21953082
H 1.8849651 0.9512664 -0.06146249
H 1.507403 -0.70137125 0.42348218
