11

C -1.43912766 1.23638889 -0.01434975
N -1.87460129 1.97641226 0.77929904
C 0.70645605 -0.79226439 0.69079599
C -0.83607995 0.41183648 -0.98119624
N 0.55520844 0.07060549 -0.51683631
H -1.35174851 -0.51312891 -1.21704253
H 0.19771472 -0.28808390 1.51378865
H 0.20833293 -1.74043477 0.48229202
H 1.03342359 -0.36076331 -1.30700779
H 1.03793159 0.95528969 -0.35466049
H 1.76248978 -0.95585760 0.92491758
