11

C -0.4961404 0.313965 -1.2192849
N -1.6387788 2.3103971 -0.064120874
C 0.3759025 -0.7244252 0.96843565
C -1.1608815 1.3807523 -0.5880722
N 0.6656126 -0.10217608 -0.35620397
H -0.21340773 -1.6247221 0.7873098
H 1.2403101 0.72925603 -0.21326268
H 1.2364398 -0.73631537 -0.9140242
H -0.21942544 -0.009213783 1.537988
H -1.0917655 -0.56689906 -1.4347095
H 1.3021343 -0.9706191 1.495945
