11

O 1.45708181 1.46198358 1.24754097
C -0.09426184 -0.45960686 1.03027757
C -0.77180473 -0.90872022 -0.23555168
C -0.39259349 -0.09972434 -1.22813989
C 0.73479646 0.75035742 0.58744197
N 0.49294807 0.88363956 -0.76586533
H -1.44741913 -1.74629820 -0.31936368
H -0.66986873 -0.11530678 -2.27355050
H -0.79043610 -0.15583320 1.81923700
H 0.91390787 1.60702072 -1.32545536
H 0.56764965 -1.21751123 1.46342915
