11

O 0.9637405 -2.001831 0.3966064
C 0.57290393 -0.8385419 -0.0019040408
C -0.81568635 -0.6794693 -0.26774827
C 0.17562659 1.3556107 0.046214003
C -1.0242331 0.7701753 -0.17444329
N 1.1849128 0.3566199 0.10736434
H -0.34751627 -1.8383968 0.54227126
H 0.4488119 2.3949404 0.15913959
H -1.9550147 1.297748 -0.3331216
H -1.2807081 -1.2864466 -1.0418888
H 2.0771627 0.46959174 0.56751055
