11

C 0.1865208 0.23149651 0.20768997
C 1.0432507 1.230516 0.9167798
C -1.2257328 -0.022873677 0.48999217
N 0.66981477 -0.51599437 -0.75818735
N -1.4470196 -0.9578266 -0.4209112
N -0.31075117 -1.3586485 -1.1125178
H -0.3946039 -1.5612065 -2.1012986
H 1.243436 0.9033721 1.943295
H 0.52814895 2.193757 0.9789182
H 1.9955726 1.3597401 0.39731118
H -2.2886362 -1.5023322 -0.5410716
