11

C -1.22512974 -0.09932857 0.48189985
C 0.07340612 0.35484901 -0.01447330
C 0.46887093 1.78172748 -0.22053118
N 0.90526486 -0.62691049 -0.27790070
N 0.28997199 -1.75680000 0.09878216
N -1.00935722 -1.40498136 0.44236776
H -1.62009681 -2.13263952 0.78406078
H -0.31268200 2.31501015 -0.76990248
H 0.59057538 2.28848049 0.74342948
H 1.40972318 1.84543720 -0.77207595
H 0.42945324 -2.56484472 -0.49565640
