12

N 0.16815099 1.7030408 -0.2377662
C 1.1565669 -0.5016788 0.54948765
C 0.3359429 0.29209015 -0.48041606
O 0.06277318 -1.4458573 0.70753306
C -0.7510807 -0.709029 -0.11761256
N -1.9687147 -0.8332599 -0.3927365
H 0.6896709 0.14314915 -1.5038619
H -0.278067 1.8552606 0.6628799
H 2.0596716 -1.0020481 0.19573154
H 1.3470968 0.032940716 1.483671
H -0.4391229 2.106942 -0.9407669
H -2.3828878 -1.6415504 0.07385698
