11

C 1.0095761 -0.809651 -1.1414726
C 0.21860674 -0.16240825 -0.058372647
C -0.8828494 0.63156545 -0.051468387
C -1.0915276 0.8820837 1.3305556
N -0.1997005 0.2937794 2.0760314
O 0.6314215 -0.36867946 1.2011503
H 1.0092053 -1.8980356 -1.0303605
H 0.5797184 -0.5582336 -2.1123846
H 2.0491698 -0.46939507 -1.1206912
H -1.4570769 0.9854562 -0.89500576
H -1.8665435 1.4735181 1.8020182
