12

N -0.60853842 -0.22583477 1.16184565
C -0.25091398 -0.98386290 -0.04419139
C 0.46895878 0.05088863 -0.93752837
O 1.87970107 0.01603811 -0.79214887
C -0.04533284 1.41827414 -0.47539976
N -0.60168545 1.13558988 0.65463801
H 0.28057215 -0.13457211 -1.99731397
H -1.14540854 -1.36763757 -0.54772148
H -1.56856142 -0.42106579 1.43926213
H 0.41560970 -1.81071171 0.20475814
H 2.10389751 0.50198646 0.01015608
H -0.92829848 1.82090723 1.32364381
