10

O 1.8434956 0.6536222 0.8953522
C 0.7867448 0.17232281 0.6595298
C -0.3296057 1.5189536 -1.0878143
C -0.32929957 -0.67522615 1.0567037
O -1.1740705 0.44802788 -0.9864846
C -0.158749 -0.3600572 -0.44464555
H -0.12869972 -1.6851755 1.4052495
H -1.2030708 -0.18442717 1.481993
H 0.2512749 -1.1045533 -1.1266253
H 0.44197986 1.2165128 -1.8532584
