10

C -0.41148374 0.27622895 -0.25976690
O 0.86087357 -1.27667378 0.42180978
C 1.01190870 -0.19629711 -0.54622168
O -0.49165020 1.58772829 0.21586476
C -0.37670579 -0.84487775 0.78954099
O -1.08418779 -1.26601702 1.64984641
H -1.12413876 0.06116433 -1.06846957
H -1.37766852 1.73573618 0.56550664
H 1.21708776 -0.58926797 -1.54215943
H 1.77596495 0.51227578 -0.22595093
