10

N -0.096951485 0.37618187 -0.35226813
C 0.2223545 -0.6079163 0.60031694
O -0.33879495 2.268312 -1.2184438
N 0.010571481 -1.8646718 0.1251458
C 0.019930702 1.6697592 -0.15644109
O 0.6504502 -0.3499872 1.7076479
H 0.36458996 2.165158 0.7495049
H -0.4767111 0.9869614 -1.4860216
H -0.47112897 -2.0180073 -0.74518293
H 0.11568968 -2.6257894 0.775742
