11

C -1.60654304 -0.86374407 -0.17975368
C -0.37567646 -0.35500774 -0.10558038
C 0.06694893 0.99023799 0.44527252
N 1.71665274 -0.15188648 -0.30136925
N 0.78542328 -1.01280066 -0.55765532
N 1.51361450 0.99153037 0.23892594
H -2.45883397 -0.30324684 0.19029820
H -0.38295576 1.83693923 -0.08438927
H -0.15068383 1.11235756 1.51231610
H 2.67104058 -0.40264267 -0.54876859
H -1.77898701 -1.84173686 -0.60929632
