11

C -0.34346527 -0.38259408 0.11816893
C 0.3243696 0.9474554 0.42477486
C -1.3024595 -1.0127445 0.7983067
N 1.0872788 0.06253967 -1.369198
N 0.23908858 -0.8674354 -1.0695919
N 1.2694856 1.1238663 -0.6757054
H 1.6423315 -0.060145598 -2.212884
H 0.8668765 0.9485851 1.376901
H -0.38156536 1.7848027 0.44385764
H -1.7063807 -0.5834203 1.7093631
H -1.6955599 -1.9609094 0.456007
