11

O -0.80027055 -1.35785787 -0.07805017
C -0.06437162 0.63565976 -1.13465652
C 0.16635104 -0.30140939 0.04864384
C 1.30907917 -0.44710899 0.96276228
O 2.28058546 0.26987065 0.91642805
C -1.26005673 -0.09880366 0.30948886
O -1.46806636 0.74149660 -0.78287942
H 0.44106408 1.59771360 -1.01694697
H 1.19574294 -1.25309205 1.71453227
H 0.08298694 0.21457391 -2.13027386
H -1.88304438 -0.00104254 1.19095140
