11

O -1.3361585 1.1625916 -0.85009277
C -0.7745192 -1.3426021 -0.51743585
C -0.09782456 1.1949433 -0.6678743
C 0.8591841 0.055864573 1.0371228
O -0.7202742 -2.378483 0.1104217
C 0.14762272 -0.24367522 -0.20108639
O 0.28910568 1.3582506 0.83871365
H 0.49148622 -0.44006458 1.9389268
H -1.4195689 -1.181669 -1.3942268
H 1.954167 0.032574262 0.98343664
H 0.6067798 1.7822694 -1.2779057
