10

C 0.93823695 -0.7951276 0.46995732
N -1.0931658 -1.0746117 -0.2193993
N -0.3248993 -0.05772862 -0.88810253
C -0.6633225 1.1585943 -0.34207413
N -0.29794216 -1.5454359 0.61457044
N 0.98719007 -0.2681856 -0.7695148
H -1.7182587 1.4172032 -0.34566817
H 0.28076056 0.3784976 0.983906
H 0.07648813 1.9355536 -0.50428253
H 1.8149127 -1.148759 1.0006077
