10

C 0.25898126 -0.6243376 -1.4363201
N 0.11245682 -0.06833607 -0.106070004
N -1.0269262 0.40855643 0.3638434
C -0.66357434 0.78312826 1.5775375
N 0.63808405 0.5427337 1.8276609
N 1.1137334 0.00063647894 0.7446547
H -0.38080683 -1.5018672 -1.5368414
H 1.3059294 -0.9017267 -1.5520574
H -0.021442048 0.1263858 -2.1749666
H -1.3364357 1.2348267 2.2925591
