10

C 0.37312033 -0.44636148 -0.70279530
N -0.29492012 0.37248621 0.14715022
N -0.02770282 -0.07424215 1.44465682
C -1.06624317 1.41579897 -0.08872444
N 0.74787793 -1.08638465 1.37783087
N 1.00807403 -1.32802604 0.09450697
H 1.60612329 -2.09703779 -0.15239276
H 0.39166100 -0.38745004 -1.77535343
H -1.24677733 1.71303504 -1.10813690
H -1.49121333 1.91818173 0.76325804
