10

C 0.5661969 -0.7133051 0.05473153
N -0.052051812 0.48275253 -0.10778509
N -1.4023323 0.29372346 0.20125422
C 0.424371 1.6568018 -0.4734451
N -1.5804895 -0.9274421 0.5290321
N -0.40829763 -1.5545369 0.45332778
H -0.27143088 2.4763405 -0.5289273
H -0.3558703 -2.5331545 0.6759495
H 1.4716071 1.7460313 -0.70898336
H 1.6082975 -0.92721117 -0.095154345
