10

N 0.61012645 -1.27437749 0.12580614
C 1.11172203 1.27023709 0.91261604
O 1.24219973 2.35962258 1.37621974
N -1.29756790 -0.37537631 -1.00468916
C -0.19794251 -0.35214685 -0.18401374
O -0.06040735 0.92459201 0.29897577
H -1.93160646 0.40550362 -0.92787041
H 1.86079011 0.46597154 0.90506575
H 0.38443852 -2.15166183 -0.32939127
H -1.72175293 -1.27236477 -1.17271887
