10

N 0.4454052 0.5831163 0.68918085
C 1.0233173 -1.1309136 0.7666289
O 2.1617777 -1.3694563 0.52539223
N -1.1239957 0.81865084 -1.1186268
C -0.2678987 0.15583675 -0.3146756
O -0.04595923 -1.1044165 -0.4937736
H -1.6669004 0.27663738 -1.7717047
H -1.446577 1.7347168 -0.8629508
H 0.52158237 1.5447471 0.9970727
H 0.39924827 -1.5089185 1.5834571
