10

N 1.4799589 0.5014938 0.9206102
C 0.22360767 0.62385243 0.37711528
O -0.44661206 1.6307051 0.44434196
N -0.23100884 -0.5464706 -0.23340401
C -1.4572383 -0.64160484 -0.8709633
O -1.853568 -1.6709659 -1.357997
H 1.877713 1.3755085 1.2285763
H 2.1268125 -0.17089099 0.5366489
H 0.29005063 -1.4093195 -0.16577233
H -2.0097158 0.3076916 -0.879156
