10

N -0.93870157 0.26466224 -1.3721455
C -0.3323108 -0.18727522 -0.22704004
O 0.50327486 0.80243564 0.22520539
N -0.44396096 -1.294111 0.37455946
C 1.423502 0.4936222 1.188392
O 2.1338909 1.3430842 1.6271123
H -1.0827414 -1.9246416 -0.09677719
H -1.7978395 -0.18532898 -1.640744
H 1.4217918 -0.5694882 1.4673121
H -0.88690513 1.2570406 -1.5458746
