11

N 1.3473798 0.569223 1.8388617
C 0.64189357 0.2662143 0.83571243
C -0.7669733 -0.17770033 0.85557646
C -1.1574653 -0.39684305 -0.39636624
C -0.014265167 -0.10783807 -1.3248281
O 1.055009 0.29575306 -0.47032142
H 2.2854822 0.8462005 1.5510824
H -1.327757 -0.28312057 1.7743938
H -2.1298344 -0.7269712 -0.7387622
H -0.2349132 0.7025179 -2.0283768
H 0.30144387 -0.98743576 -1.8969715
