10

N 1.24432444 0.63840058 -0.15909432
C -1.05880718 -0.19570124 -0.43232794
N 0.85878107 -0.73222669 0.25594476
O -0.31423585 1.05353128 1.63390824
C -0.19418371 -1.17670640 -0.66965693
C -0.01979643 0.42663016 0.46937277
H -2.06059957 0.07194423 -0.73013939
H -0.12760138 -2.06381642 -1.28906190
H 0.52261928 1.22770125 2.09124926
H 1.14949946 0.75024307 -1.17019473
