10

N -0.32328185 -1.0024781 -1.506824
C -0.075382024 -0.44305944 -0.2663671
N -0.032330174 -1.1754078 0.8172296
O 0.31450555 -0.30517823 1.8412949
C 0.45224962 0.92367417 1.3347485
C 0.22352248 0.93058556 0.0019747245
H -0.8822082 -0.42765614 -2.1202614
H -0.6721278 -1.9491845 -1.4500264
H 0.7226229 1.695412 2.04226
H 0.27242962 1.7532923 -0.694029
