10

O -1.914337 0.527622 0.4753341
C 1.3081878 -0.24110854 -0.97372997
C 0.26529822 -0.31596354 1.1400789
C -0.78733474 0.21855377 0.18912984
O 1.4293665 -0.5381371 0.29809564
C -0.10131282 0.26852226 -1.1665086
H -0.022249823 -1.2640444 1.6013824
H -0.6272554 -0.339803 -1.9117666
H 0.53163844 0.39842907 1.9240309
H -0.082000986 1.2859294 -1.5760465
