10

O 1.3517106 0.042033415 1.8643245
C 0.7442766 0.49892193 -0.60964894
C -0.39703146 -0.26808897 -0.9776614
C -0.6938253 -0.6131962 0.4747443
O -0.32924324 -1.6198874 -0.35717833
C 0.58631456 0.21814412 0.9088787
H 0.16522452 1.3256813 0.7397757
H -1.6779612 -0.6231989 0.9449068
H 1.3248718 1.2296699 -1.1646467
H -1.0743366 -0.19007927 -1.8234946
