10

N -0.62003900 0.47194097 2.66803052
C -0.32989917 0.48859408 1.55172009
C 1.15485157 -0.44651918 -0.23404382
N -0.98355051 -0.06526555 -0.74214709
C 0.03585986 0.50319275 0.12783990
C -0.58278140 -1.08387092 -1.50564332
N 0.82026420 -1.29026555 -1.12741411
H 0.28959565 1.52891694 -0.16839369
H -1.92725432 0.29275032 -0.78444559
H 2.14295305 -0.39947394 0.21449656
