10

N -0.24991894 -0.4441589 -1.1236889
C -1.0618675 -0.46965998 1.1862757
C 1.002187 -0.54807556 -1.5737237
N -1.5717726 -1.0786755 2.022759
C -0.40874255 0.29996997 0.11738603
C 1.0551665 0.5843704 0.36465454
N 1.8102506 0.13860397 -0.5589836
H -0.9614339 1.2343439 -0.04300082
H -1.0309418 -0.84217346 -1.6258135
H 1.4170732 1.1254551 1.2341355
