10

N 2.3413959 -0.354215 -0.7962846
C 0.068662055 0.024138695 0.6373291
C -0.34902987 0.49882388 -1.033526
N -1.284143 -0.5523683 -0.96653026
C -0.92373776 -0.9987022 0.187125
C 1.2308514 -0.088436715 -0.5745653
N -0.5759955 1.272456 0.12973815
H 0.10948791 2.026669 0.19193023
H 0.6292261 0.09364833 1.5678688
H -1.246717 -1.9220135 0.6569149
