10

N 0.6053758 -0.17402674 3.3047001
C 0.35261217 -0.028589774 2.1857436
C 0.04194389 0.1357227 0.79796296
N -0.6544976 1.1226146 0.28467128
C -0.70184505 0.86501163 -1.0537595
C -0.02450786 -0.2921554 -1.3497208
N 0.4515047 -0.754772 -0.15418874
H -1.22076 1.5263275 -1.7346361
H 0.15345488 -0.8113567 -2.2779043
H 0.996719 -1.5887759 -0.002869039
