9

O -0.04282009 -1.36755620 -1.53573763
C -0.61021146 0.61768908 -0.23152901
N 0.93512779 -0.78654768 0.53530858
N -0.09086767 1.01219576 0.96315011
N 0.82906997 0.17062213 1.41365072
C 0.07535540 -0.54653445 -0.47662675
H 0.58747444 -2.09068303 -1.40781216
H -1.36960855 1.16117259 -0.76838950
H -0.31351962 1.82964177 1.50798558
