9

N 0.14664352 1.1424348 -0.41560352
C 0.30861732 -0.13331446 -1.0882437
C -0.2817547 -0.6280667 0.9342767
N 0.019314304 -1.2145975 -0.16495396
C -0.20381789 0.8361713 0.7788827
H -0.4066802 1.5818343 1.5414808
H -0.5525637 -1.1689855 1.8356017
H -0.36241123 -0.18653587 -1.953
H 1.3326526 -0.22894067 -1.4684408
