9

N 0.33155288 -1.13619972 -0.31930048
C 0.32409981 -0.68368059 0.87992421
C -0.12876330 0.71940545 0.90180834
N -0.39602164 1.12302897 -0.28523795
C -0.12358613 -0.02369017 -1.13201455
H 0.61728725 -1.28177910 1.73703373
H -0.23482127 1.35396840 1.77633900
H 0.63921610 0.23332233 -1.87660826
H -1.02896367 -0.30437577 -1.68194400
