9

O -0.39427537 0.18178697 1.3113724
C 0.4763057 -0.22268395 -0.79050195
N -0.8395291 0.39181152 -0.9029345
C 0.73890007 -0.34428048 0.70479846
C -1.2246029 0.5706813 0.28914705
O 1.6644027 -0.77331907 1.3181704
H 1.245172 0.39273548 -1.2694529
H -2.1648557 1.0104921 0.6067391
H 0.4984827 -1.207224 -1.2673383
