9

O -0.64444876 -0.68088011 -1.01453700
C 0.60708983 0.27676068 0.67542133
N -0.56618861 1.09359115 0.39636460
C -1.17724739 0.48933720 -0.53251589
C 0.51756324 -0.90074148 -0.28641987
O 1.22308742 -1.84398533 -0.45782882
H -2.10343776 0.79881693 -1.00661218
H 0.61180739 -0.07141795 1.71370832
H 1.53177462 0.83851886 0.51241941
