11

C -0.66050997 1.05388878 -0.55641334
C -0.00618667 -0.20636226 -0.20575054
O 0.60492779 -0.98919093 -1.16388131
C 0.59486303 -0.45361923 1.15026414
O -1.40914931 -0.13879803 -0.28082946
H -0.67869892 1.37287920 -1.60029519
H -0.77126983 1.85209552 0.17678860
H 0.08529498 -0.92758942 -1.97695025
H 0.12766742 0.19207378 1.89853799
H 1.67002513 -0.25636358 1.12269768
H 0.44303653 -1.49901392 1.43583198
