11

C 0.3522649 -0.07024149 0.04659853
C -0.3829353 0.15322483 -1.2216902
O -0.52740425 -1.2075176 -1.3814936
C -0.08842213 0.39413157 1.3870928
O 1.3721949 -0.85793304 -0.030624855
H 0.59327817 0.05754127 2.1688712
H -1.0840968 -0.025449222 1.5629339
H 0.21370894 0.68752635 -1.9869856
H 1.0523998 -1.3416219 -0.8898446
H -1.3114744 0.72694695 -1.0430596
H -0.18951367 1.4833922 1.3882021
