11

C -0.03422649 -0.16883701 -0.23511602
C -0.27588224 1.2586547 -0.44297653
O 0.46495077 -0.9671097 -1.2440159
C 0.29619783 -0.7432466 1.1147158
O -1.3456686 0.3025279 -0.42601034
H -0.07485127 -0.090034075 1.9089078
H -0.26388943 1.9577037 0.39259124
H 1.3789705 -0.857086 1.2161415
H 0.091624886 -0.6599385 -2.0813735
H -0.071482554 1.6971405 -1.4216113
H -0.16574353 -1.7297748 1.2187476
