11

N 2.043242 -0.49491367 -0.764044
C -0.08758426 -1.3993208 -0.1127334
C 0.90534747 -0.30902532 -0.25028142
N -1.0645574 -1.0885774 0.6619107
C -0.9710387 1.1182913 0.36414242
C -1.1747894 -0.011681535 1.3590299
O 0.46476808 0.93272513 0.12360438
H -1.0742092 2.106964 0.8026005
H -1.5137035 1.0375131 -0.58502173
H 2.5227544 0.4014778 -0.87874174
H -0.050229594 -2.2934525 -0.7204656
