10

O -1.127705 -1.6701133 1.4839289
C 0.5120048 -0.3767807 0.35709146
C -0.09586463 1.2009788 -1.4581283
N 1.6645613 0.04010548 0.16020623
O 1.041436 1.4833827 -1.7849541
C 0.034975395 -1.3913554 1.3918831
C -0.4760288 0.4591307 -0.29343057
H -0.9629959 1.4441692 -2.101634
H 0.82659316 -1.8225213 2.0267518
H -1.4169765 0.6330039 0.21828547
