10

O -0.33045092 1.9609268 -1.0161836
C -0.38600016 -0.5830848 0.3322556
C 0.45925805 -0.2702558 -0.802517
N -0.94391537 -0.87995213 -0.7454785
O 0.2465073 -0.33448696 2.5833547
C -0.6233819 -0.60736555 1.7945045
C 0.5267301 1.1509551 -1.2712805
H 1.2640104 -0.936838 -1.1041522
H 1.4302366 1.4116054 -1.8549402
H -1.6429942 -0.91150385 2.0844371
