10

O -0.056039806 -0.33919448 0.6739612
C 0.12604852 0.39578846 -0.42011142
O 0.17829189 -2.3560443 -0.33220354
C 0.108597085 2.9906073 -0.1291545
C 0.114958495 1.7845242 -0.24163298
C -0.097843796 -1.6124287 0.76180714
H -0.6272887 -2.7675612 -0.68373173
H 0.10306251 4.054668 -0.031365052
H -0.15391 -2.0346801 1.7557634
H 0.3041238 -0.11567894 -1.3533324
