10

O 0.00015158037 0.57946086 0.4360792
C -0.121161 0.383719 1.6779921
O -0.24593595 -0.8864845 2.093051
C 0.16098425 0.10661069 -1.840513
C 0.28019285 0.47361198 -2.9903889
C 0.02758116 -0.36003923 -0.52959317
H -0.06862903 -1.392922 -0.23519765
H -0.11860654 1.2334571 2.3412328
H -0.2995929 -0.92260313 3.052559
H 0.38501564 0.7851893 -4.0052214
