10

O 0.03739865 -2.5514917 0.51821923
C -0.23607858 -1.9935349 -0.5082323
O -0.23186488 -0.66933227 -0.700047
C 0.13512865 0.09454282 0.4613608
C 0.10197932 1.5122964 0.10929503
C 0.08533366 2.6881855 -0.13857213
H -0.5311916 -2.4887166 -1.4470261
H -0.56434005 -0.120745055 1.2764802
H 1.1349802 -0.20375276 0.7931613
H 0.06865464 3.7325492 -0.36463892
