13

C -0.5287062 0.25990194 0.9337276
N -0.48696464 1.6075206 1.0724596
C -0.28268096 -0.21223818 -0.5042355
O 0.18287268 0.8418033 -1.3412457
C 0.6216717 -1.4338355 -0.52727306
O -0.74576414 -0.52449286 1.8397576
H 1.1310642 0.9433211 -1.1872932
H -0.75733864 2.0126054 1.9557124
H -1.2662599 -0.47790313 -0.90599054
H -0.4194748 2.1843522 0.24884461
H 0.71391046 -1.8112115 -1.5496931
H 0.21483187 -2.2117908 0.12128761
H 1.6228386 -1.178032 -0.15605842
