13

C 0.8712747 0.45319572 -0.761318
N -0.07621692 -0.47449479 1.1886377
C 0.83844995 -0.68725485 0.054552726
O 1.3023472 -1.7974781 -0.1358509
C -1.4156636 -0.22553894 -0.39047557
O 0.6496956 1.7325529 -0.23049438
H 1.5086887 2.093189 0.021626597
H 0.02317381 0.39771187 1.6933984
H -0.16154318 -1.3054284 1.7626064
H -2.1426826 -0.663596 0.2877578
H 1.4552534 0.41006237 -1.6770542
H -1.5245378 0.8503571 -0.49638242
H -1.3282388 -0.783278 -1.3170042
