13

C 0.70555371 -1.15406998 -0.94376556
N -0.57767686 1.15536527 1.51751340
C -0.27284249 -0.05979739 -0.54880627
O 0.11970691 1.23057196 -1.00617004
C -0.53657285 -0.08006808 0.96156388
O -0.69735478 -1.12144926 1.57226357
H 0.35295994 -2.12002618 -0.57774602
H 0.81313668 -1.18421865 -2.03178226
H 1.69172333 -0.96697198 -0.49875465
H -1.24108278 -0.24554715 -1.02569228
H -0.55261407 1.96501025 0.91794849
H 1.06091436 1.33661557 -0.81654490
H -0.86585101 1.24458569 2.47997207
