13

C 0.58417654 -1.5810134 -1.1672722
N 0.22805227 -0.64237463 -0.12646873
C -0.0501897 0.6598551 -0.37916902
O -0.07280593 1.1707015 -1.4859858
C -0.33536604 1.474643 0.8783214
O -0.5672514 0.6876616 2.034691
H -0.11193871 -2.4256392 -1.1827574
H 0.5317586 -1.0547794 -2.1205127
H 1.6016672 -1.9596184 -1.0224252
H 0.27379358 -0.91113067 0.8456987
H -1.1666886 2.1536028 0.65288526
H 0.54849136 2.0873973 1.0871494
H -1.4636991 0.34069446 1.9858447
