10

N 0.90394926 1.9288919 -1.8430539
C 0.3539782 1.0793002 -1.2826107
C -0.3267453 0.02100363 -0.574004
C -0.48319656 0.12061396 0.9277145
C 0.46569836 -0.87748057 0.3501334
H -1.1428477 -0.4335032 -1.1291739
H -1.4232173 -0.22931288 1.3436874
H -0.07024506 0.9999056 1.4105713
H 0.19306387 -1.9275098 0.3604361
H 1.5295622 -0.68190885 0.43629995
