11

C 0.8892602 0.23183167 0.7032569
C -0.18431485 -0.37971246 -0.02174208
C -0.5777379 1.7328318 0.3856413
N 0.5609286 1.5655173 0.9440022
C -0.27030143 -1.6146581 -0.68439543
O -1.1031307 0.62196565 -0.22898841
H 0.3709718 -2.4257631 -0.3685385
H 1.753292 -0.26933262 1.1156439
H 0.7862355 -0.3197893 -0.76339316
H -1.0527825 -1.7751087 -1.4151964
H -1.1724205 2.6322172 0.3337098
