11

N -1.0613887 -0.43068627 1.3857535
C -0.27038282 -0.034331407 0.33212534
C 0.8829532 1.1045012 -1.253441
C 0.3797593 1.1550444 0.077448115
N -0.07521972 -0.85125345 -0.734684
N 0.55742675 -0.15817745 -1.7478478
H -0.9878468 0.16797805 2.1941707
H 1.7133745 0.16273645 -1.6932284
H 0.46487686 1.98762 0.7617261
H -0.58397746 -1.6937199 -0.95000875
H -1.0195755 -1.4097116 1.6279858
