11

O 1.9606265 -0.8721569 1.3911442
C -0.43890268 0.67293245 -0.17136614
N 0.71427387 0.6328952 0.36270466
C -1.1243913 -0.4588902 -0.87855077
O -1.1733239 1.7931625 -0.17510124
C 1.6786368 -0.3021518 0.23105952
N -0.63801044 -1.6056603 -1.0983901
H -0.637156 2.509774 0.19544962
H 0.31721354 -1.6911901 -0.73146343
H -2.1199322 -0.20933408 -1.2529321
H 1.4609661 -0.4693807 2.127446
