11

C 0.07687367 -1.2970796 0.24172917
N -0.28421587 1.161156 -0.651577
C 0.037515003 0.0017714525 -1.2026327
O -0.94404554 -1.108076 -0.56276435
C -0.12181843 1.2350082 0.68261063
O 1.1008894 -0.757319 -0.4483128
H 0.089164004 -0.08564824 -2.2819834
H 0.1926385 -2.1789947 0.86364937
H -0.12857766 -0.1675954 1.0666727
H 0.8802386 1.402702 1.0894095
H -0.89866185 1.7940755 1.2031988
