11

C -0.77440554 0.87875223 1.5440899
N 0.5851181 0.5158796 1.1795924
C 0.83623946 -0.054192226 0.09642112
O -0.14362966 -0.39006984 -0.83946055
C 0.25249323 -1.0273305 -1.966898
O 1.3777667 -1.3385122 -2.2382078
H -0.78698933 1.952957 1.751348
H -1.0189142 0.36583757 2.4789505
H -1.5384586 0.6480091 0.79335654
H 1.8407874 -0.33742535 -0.20479475
H -0.6300078 -1.2139055 -2.5943973
