11

C -1.03003417 1.07171550 0.73439121
N 0.53348036 -0.42022752 0.94464913
C 0.20049737 -0.35415986 -0.43504170
O -0.77578409 0.57839780 -0.57371899
C 0.69092681 -1.09761613 -1.42214385
O 0.15750331 0.86856016 1.44313035
H -1.23481569 2.14048248 0.69531542
H 1.53575146 -0.48394844 1.10565902
H -1.86318111 0.50268176 1.16884419
H 1.49798972 -1.79616356 -1.23655260
H 0.28766580 -1.00972231 -2.42453212
