11

C -0.37145898 1.164229 1.1204749
N -0.18365401 -0.94720536 0.65009815
C 0.08679038 -0.22645825 -0.54412663
O 0.13167673 -0.010618451 1.6865283
C 0.34514692 -0.7252192 -1.7491612
O -0.027365722 1.0949955 -0.2564653
H 0.4549685 -1.7256756 0.7938941
H -1.4651455 1.2192509 1.2071062
H 0.12375746 2.0155108 1.5850233
H 0.45786086 -1.7934653 -1.8902605
H 0.44742322 -0.06534387 -2.6031115
