17

C -1.37103015 1.88232254 1.40118929
N -0.63274915 0.68430567 1.03666914
C -0.45632320 0.41207477 -0.30908868
O -1.03963192 1.05141867 -1.17408470
N 0.38128064 -0.64555529 -0.59240355
C 0.91391541 -1.54189377 0.41485622
C 0.82299681 -0.84121080 -1.95854499
H -2.31120171 1.89920469 0.84559344
H -0.82961862 2.80970244 1.17072363
H -1.59189092 1.84794716 2.46974869
H 0.31064629 -0.11290800 -2.58610051
H 0.18793435 -1.67225832 1.22357209
H 0.17183096 0.49027929 1.61554189
H 1.86705666 -1.19088936 0.83695844
H 1.90927344 -0.69720272 -2.04762489
H 1.08811729 -2.52211731 -0.04136332
H 0.57939335 -1.85321967 -2.30564241
