17

C -1.4763018 1.0071826 2.047513
N -0.5107898 0.24393527 1.273938
C -0.63512266 0.24333994 -0.10477185
O -1.6156278 0.7203786 -0.65999395
N 0.39516568 -0.36446193 -0.78998107
C 0.47811016 -0.19073291 -2.2261827
C 1.4560642 -1.1148843 -0.14728726
H 0.50250596 -1.1623639 -2.7354167
H 2.3131404 -0.48570395 0.13450186
H 1.0717926 -1.6206251 0.7441309
H 1.8153176 -1.8828044 -0.84050906
H -1.3660388 0.7477457 3.1021764
H -2.4825306 0.7371183 1.7196972
H -1.3650601 2.0930495 1.9258877
H -0.40236512 0.36291394 -2.550208
H 1.3822719 0.36886817 -2.505483
H 0.43946815 0.29704463 1.6119887
