17

C -1.5322735 2.2384968 0.13863607
N -0.6627561 1.1788058 -0.34098637
C -0.10939641 0.3202917 0.5928663
O -0.22852165 0.5268681 1.7936257
N 0.6069153 -0.7401729 0.07986923
C 1.0452528 -1.7855947 0.980206
C 0.8341518 -0.94049436 -1.3395222
H -2.4647262 1.859784 0.5778942
H -1.0103666 2.8056147 0.913564
H -1.7694216 2.9104757 -0.68931276
H -0.93170875 0.7733666 -1.2242763
H 0.52585715 -2.7338521 0.7774503
H 0.82655454 -1.4710348 2.0000985
H 2.1244352 -1.9567528 0.8812104
H 0.9963649 0.022329442 -1.8343167
H 1.7416233 -1.5390196 -1.4694489
H 0.008015351 -1.4691116 -1.8375577
