11

C -0.042264603 0.23469603 -1.1276388
O -1.5812484 -0.28104162 0.83125883
C 0.93670464 0.027570792 0.67116857
C -0.39118075 -0.5475705 0.1507329
O 1.2767859 0.5098521 -0.63612205
H 0.7997866 0.84982884 1.3908322
H -0.024954012 -0.31311762 -2.0761468
H -1.6524509 0.6721487 0.97286206
H -0.362518 -1.630037 0.01010815
H 1.6813953 -0.67401373 1.0629282
H -0.64005566 1.151684 -1.2499834
