9

O 0.5871326 1.7807298 -0.84832364
C 0.14001621 0.68535334 -0.2097487
N -0.3100789 -1.2853591 0.4583145
N -0.92826754 -0.4500744 1.2831681
N -0.65688276 0.757651 0.87874085
C 0.3861852 -0.6319709 -0.511101
H 0.21942104 2.5470364 -0.38509187
H 0.96027464 -1.1262186 -1.2763221
H -0.39780045 -2.2771473 0.61036366
