10

O -0.6498842 0.6759155 -1.1491616
C 0.5488365 -0.25364503 0.5116879
O 1.7475693 0.9514508 -1.3606174
C -0.45645773 0.5147026 1.1451604
C 0.8335921 0.29342026 -0.91153884
C -1.0374091 -0.002393982 -0.03546594
H 0.62914556 -0.83295316 -1.2864954
H 1.115565 -1.0312276 1.0160962
H -0.81931794 0.34180862 2.1506486
H -1.9116398 -0.657078 -0.080313824
