11

O -0.05754521 1.48213945 -2.12425062
C -1.00918892 1.06674996 -1.52129095
O -1.77974957 -0.50941458 0.06761030
C 1.00912865 -1.02850199 1.01894504
C -0.86067566 0.19690722 -0.27000586
C 0.44422051 0.27078905 0.52399591
O 0.88823005 1.36877850 0.76143814
H 1.35447018 -1.62724583 0.16750531
H 0.22677720 -1.59782496 1.52911632
H -2.05937813 1.20265484 -1.84363213
H 1.84371095 -0.82503163 1.69056859
