11

O -1.8038665 0.6540419 -1.6447054
C -1.1576434 0.029811533 -0.8668403
O -1.2107428 -1.3157312 -0.60884535
C -0.21972914 -1.2385124 0.45555377
C -0.04419107 0.23504497 0.13795346
C 1.1267285 1.0992975 0.06886698
O 0.086073644 1.2969388 1.0279382
H 0.62954736 -1.8921629 0.24986741
H -0.66632855 -1.4602219 1.4254959
H 1.1903986 1.8532315 -0.7171056
H 2.0697534 0.73826224 0.47182098
