10

O 0.7580279 1.4485174 -0.7290315
C -0.121842444 -0.73441684 1.0191959
C -0.6802924 -0.3696555 -0.28209537
O -1.3502711 0.6950964 0.23684856
C 0.76233965 0.15743671 -0.6387241
O 1.0891646 -0.3297386 0.98839986
H -0.18572791 1.6430663 -0.3442604
H 1.521314 -0.3833277 -1.2010853
H -1.1829693 -1.0502228 -0.9782007
H -0.6097432 -1.0767553 1.928953
