10

O 0.05990453 -1.35054832 -1.33589072
C 0.13510277 -0.90890608 -0.04631427
C -0.76501123 0.26728327 0.36674759
O -0.37014033 1.32271155 -0.53253723
C 0.46503092 0.99220548 0.56441275
O 1.31045522 -0.06788526 0.22258918
H -0.02833766 -0.55951812 -1.88935515
H 0.13568965 -1.77237493 0.62086146
H -1.75513813 0.29831542 0.80592218
H 0.81244431 1.77871705 1.22356393
