10

O 0.9519378 2.0938754 -1.163384
C 0.6699881 1.1163098 -0.5494112
O 1.1300784 0.75288373 0.7057454
C 0.5011434 -0.5396936 0.56735754
C -0.96467435 -0.3663774 0.5089257
C -0.12029138 -0.14834213 -0.7442592
H 1.0766116 -1.4086411 0.8483711
H -1.5555382 -1.2779378 0.47690964
H -1.4287773 0.47300157 1.0174736
H -0.26047838 -0.695079 -1.6677289
