10

O 0.9657301 0.800968 1.0436891
C 0.7337528 -0.40625694 0.58983636
O -1.2646463 1.8541012 1.2241398
C 0.5513632 -0.49147543 -0.8599228
C -0.6736392 1.0989958 0.54342765
C -0.7886382 0.05710956 -0.38990372
H 0.45730427 -1.4954541 -1.2670888
H -1.756667 -0.33357328 -0.68425095
H 1.1697401 0.1705646 -1.467035
H 0.6057003 -1.2549795 1.2671083
