10

C -1.18209233 -0.27683592 0.01838318
C 0.06725332 -1.67235416 -1.62047673
N -0.57349239 -0.94077123 -0.88552705
C 1.91562521 1.18138601 0.59337483
C -0.51293827 0.70092467 0.85989765
N 0.74299200 0.90625798 0.79516403
H -2.24445859 -0.44895394 0.14160752
H 0.21154946 -1.36268798 -2.65952114
H 2.66747824 0.64304007 1.17942088
H -1.09191636 1.26999421 1.57767677
