10

O 0.955213 2.0924923 -1.1639147
C 0.6718561 1.1164056 -0.54939216
O 1.1292508 0.7559929 0.7062794
C 0.5006384 -0.537199 0.567154
C -0.96616876 -0.36990666 0.5066926
C -0.12071418 -0.14889902 -0.74358773
H 1.0754992 -1.4057546 0.8517641
H -1.553951 -1.2816188 0.4792427
H -1.4324769 0.47205478 1.0139556
H -0.25914675 -0.69356745 -1.6681936
