10

O 1.1225959 -0.8681267 -2.159517
C 0.4789414 -0.357715 -1.304197
O -0.22019362 -1.2137134 -0.19096641
C 0.18855679 -0.049873337 1.3172532
C -0.82908106 0.025847223 0.26352462
C -0.081543274 0.79937285 -0.7571306
H 0.87246794 0.7772305 1.4852397
H 0.029039867 1.851906 -0.9645315
H 0.34476098 -0.9692529 1.8765947
H -1.905545 0.0043250066 0.4337303
