10

O -1.31633141 0.54686966 0.07172384
C -0.58136509 0.74596699 -1.12987674
O 1.06731289 0.54817141 2.66390109
C 0.75105718 -0.71451092 0.55461201
C 0.91158318 -0.04010585 1.67398493
C -0.42439866 -0.47485229 -0.32852882
H 1.48562619 -1.46726659 0.29901187
H -1.17630674 0.72761378 -2.04015864
H 0.19391660 1.50892928 -1.07398984
H -0.91109422 -1.38081543 -0.69067949
