11

N -0.48020229 -1.49258639 0.71792022
C -1.53666011 -0.70292693 0.35429657
C 0.75694226 -0.90660466 0.42497345
N 1.14400287 1.28925322 -0.62959878
C 0.23937031 0.23893357 -0.11708689
N -1.12005284 0.41564217 -0.18387403
H -2.57225984 -0.98322351 0.50213194
H -0.57574974 -2.39617459 1.15303926
H 2.07516089 0.89838183 -0.45227538
H 1.04115326 2.18014181 -0.13860523
H 1.02829498 1.45916348 -1.63092129
