11

N -0.6265245 1.3385574 -1.1266439
C -0.08555839 -1.5036827 0.8669305
C 0.9128895 0.41188648 0.21435682
N -0.9824684 -0.95469046 0.08044605
C -0.32909343 0.19122632 -0.2817632
N 1.0541353 -0.734054 0.97961175
H -0.20271295 -2.450067 1.3791358
H 1.854751 -0.9854958 1.5368056
H -1.3937135 1.9307569 -0.81493634
H 0.5245895 1.6178375 -0.7135893
H -0.72629416 1.1377258 -2.120354
