9

N -0.88676476 -0.5758377 -1.225571
C 0.23575431 -0.14670627 -0.5550184
C -0.05370606 0.3676891 0.78863525
N 0.95695233 0.8028399 1.4900537
N 1.838106 1.1727158 2.0878882
O 1.3507744 -0.15776917 -1.0435094
H -0.703668 -1.0885956 -2.0742252
H -1.7066355 -0.8448889 -0.70556074
H -1.030813 0.47055277 1.2373078
