10

N 0.6457458 -0.9703363 -1.6411557
C -0.3876748 -0.92817724 -0.75537604
N -0.74420494 0.43872473 1.3609158
N 1.5407985 -0.109779395 -1.3063507
N 1.1010318 0.49868977 -0.18509887
C -0.104062065 0.01990256 0.19851609
H -0.8388028 1.4434637 1.4374124
H -1.6459988 -0.0037050361 1.469835
H -1.2525194 -1.5663662 -0.8530807
H 1.6856866 1.1775833 0.27438274
