9

O -0.01838317 -0.49354410 -1.34864772
C -0.31861929 -0.41038650 1.01990479
C -0.48630394 -1.22714270 -0.17035312
O 0.62033504 1.86030888 1.06302029
C 0.24851592 0.74752225 0.40153355
N 0.40479912 0.67825607 -0.90796004
H -1.53500958 -1.48223086 -0.35975300
H 0.09332832 -2.15545954 -0.12085816
H 0.99133766 2.48267674 0.42311348
