12

O 1.51785566 2.40622941 0.02695004
N 1.02376459 1.45101358 0.57396804
C 0.30028156 0.55747122 -0.34224757
C 0.65878963 -0.92110888 -0.08730026
N -0.58932567 -1.11131339 0.66570981
C -1.09630018 0.19210390 0.21378555
H 0.35996763 0.92991437 -1.36957337
H -1.46089863 0.82491848 1.02882121
H 1.55937820 -1.08628952 0.51264692
H -1.15263261 -1.90331151 0.38196495
H -1.85345905 0.15152871 -0.58146192
H 0.73257912 -1.49115629 -1.02326336
