12

O 1.117739 2.3614633 1.1263671
N 0.621603 1.2658272 1.2224013
C 0.772852 -0.82315224 -0.12323464
C 0.30730945 0.6467173 -0.073445596
N -0.5991704 -1.2839404 0.13410275
C -1.1277953 0.069337174 -0.0880478
H -1.6207448 0.22782998 -1.0571893
H 0.6013767 1.305998 -0.895971
H -0.9509882 -1.9837204 -0.5074727
H 1.179574 -1.090058 -1.1080008
H -1.7856894 0.41792244 0.7140327
H 1.483934 -1.1142238 0.6564581
