10

O -1.5424149 0.93886006 0.86770415
C 1.1925701 -0.97574586 -0.15766901
C 0.02994234 -1.0390195 0.68308705
C -0.61008173 0.17938447 0.22254014
N 1.331132 0.13451597 -0.8861721
N 0.29246837 0.8901033 -0.61075646
H 0.13381702 1.7422458 -1.1260982
H 1.9722489 -1.72538 -0.22812817
H -1.0767114 -0.63312507 -0.46746022
H -1.7229706 0.48816067 1.7029529
