10

O 1.448896 -1.030599 0.86252856
C 0.5131563 0.06341596 -1.1620965
C 0.6936764 -0.011761564 0.30636624
C -0.84359664 0.40774673 -1.236272
N -1.5092459 0.4138596 -0.054603085
N -0.69180447 0.06099644 0.86762786
H -1.4264022 0.60896254 -2.1272035
H 1.6701671 -1.6308994 0.13718708
H -0.9679792 0.13696583 1.8386414
H 1.1131325 0.981313 0.56782365
