11

O -0.76218391 0.58682415 -1.27962729
C 0.91299705 0.33339895 -0.19961105
C 0.41797535 0.23793329 1.19709404
C 0.13592253 -0.54211517 -1.11890750
O -0.69696358 -0.58395392 1.51159377
H -0.28763112 1.25937277 -1.79058302
H 0.29363682 1.24893447 1.61596242
H -1.46865466 -0.16904465 1.10570959
H 1.28886108 -0.19423629 1.71800707
H -0.45292370 -1.35880611 -0.69961141
H 0.61896441 -0.81830758 -2.06002653
