11

O -1.1224356 1.2521368 -0.48636472
C -0.6139609 0.7312721 0.71795225
C 0.46394965 -0.29702345 0.45316786
C 0.42676392 -1.1339267 -0.7412012
O 1.2849293 0.0065531726 -0.67043716
H -0.34607297 1.4240317 -1.0397205
H -0.19729152 1.525182 1.3582168
H -1.4472215 0.26843315 1.2571582
H 1.0135062 -0.65060943 1.3271762
H -0.40717107 -1.0336714 -1.4305948
H 0.9450047 -2.0923781 -0.74535286
