12

C -0.76552457 1.1745205 0.0033475736
N -0.1831096 -0.15281282 -0.14525242
C 1.0624771 -0.41174078 0.40373886
N 1.7064502 0.48628137 1.0310401
C -0.8576074 -1.1472299 -0.818909
O -1.9433318 -1.0201744 -1.3316237
H -1.7388313 1.1539375 -0.48802406
H -0.11391393 1.9201605 -0.4590092
H -0.87031394 1.4167526 1.0638608
H 1.3990523 -1.4425772 0.22784467
H 2.5927632 0.11932771 1.3547713
H -0.28811017 -2.096445 -0.8417849
