12

C 0.48648497 -1.1410552 -0.74324715
N 0.1558824 0.9071209 0.6165976
C 0.28714594 0.30432427 -0.627803
N 0.42294008 -1.8260647 0.4482815
C -0.9529862 1.6384101 0.33016917
O 0.7357981 -1.6819512 -1.8087085
H -0.97089845 2.717659 0.45859745
H 0.36137596 0.902404 -1.5277636
H 0.43865842 -2.8285956 0.37196904
H -1.8708391 1.1160403 0.1070958
H -0.033475567 -1.410361 1.243644
H 0.9399134 1.3020692 1.1311679
