12

C 0.047208644 -1.2582116 -0.72268134
N 0.86096996 0.9232264 1.2422706
C -0.69234234 -0.035084717 -0.31644475
N 0.3954411 0.037768014 -1.2922211
C -0.44474983 0.6002804 1.026901
O -1.3423831 0.7543069 1.8319182
H 0.7907 -1.6764216 -0.04963267
H 1.467024 0.9902684 0.43583474
H 1.0853053 1.4391825 2.0798848
H -0.47525966 -1.9798055 -1.3470713
H -1.7199131 0.06413283 -0.6559955
H 0.02799925 0.14035784 -2.2327626
