11

C -0.8393138 -0.13959181 -0.71274155
C 0.40379778 -0.9272933 -0.2911955
O 0.65665776 -0.4281368 1.0105392
C 0.35214704 0.9336702 0.9216451
O -0.73746943 1.0677121 0.028329782
H -1.7625905 -0.6604005 -0.43551794
H -0.8608046 0.07709819 -1.7872499
H 0.24725135 -2.005107 -0.22632736
H 1.2542335 -0.7189865 -0.95776975
H 0.071977265 1.2983294 1.9135795
H 1.2141137 1.5027065 0.53670835
