11

C -0.6674202 -0.11513858 0.34204057
C 0.16777802 0.6385627 1.1376494
C -0.28422296 -1.4402665 -0.23889832
C 0.67032707 1.374932 -0.37021628
O 1.5642282 0.9172261 -1.0031784
N 0.8251524 1.5859632 1.4893787
H -0.008772997 2.204349 -0.53643566
H -0.38276246 -2.2435946 0.50165474
H -0.9245537 -1.6873875 -1.0908698
H 0.7549273 -1.420362 -0.58229405
H -1.7146806 0.18571632 0.35116926
