12

O -0.69176173 1.4685657 0.8772779
C -0.85506034 0.7168414 -0.73540837
C 0.2759623 -0.27072823 -0.6500295
O 1.4616015 0.39846948 -0.27476636
C 0.010843967 -1.3936241 0.34509566
O 0.77603924 -1.6391257 1.2501801
H -0.91999656 -1.9663395 0.18571399
H -1.8271575 0.22189492 -0.59985095
H -0.78227055 2.00023 -0.05568087
H 0.36268887 -0.7252096 -1.6537905
H 1.9070083 -0.20517337 0.34630355
H 0.28210226 1.3941989 0.96495533
