10

O -0.79464793 -1.7343019 -0.7448969
C -0.29813537 -0.58626306 -0.23549779
C 0.86428523 0.1255651 -0.420682
C 0.70955634 1.2352545 0.44494662
N -0.4334138 1.213341 1.1013983
N -1.0392272 0.08370226 0.6678241
H -0.15637138 -2.097601 -1.3697287
H 1.6911205 -0.11593408 -1.0729299
H 1.4017353 2.050506 0.6067013
H -1.9449017 -0.17426907 1.0228648
