10

O -0.046752937 1.0974692 1.8627628
C 0.036082026 0.5345766 0.6415939
C 0.11119863 -0.0834656 -1.3713657
C -0.029122856 1.106372 -0.61540174
N 0.18950146 -0.8275367 0.6249419
N 0.28207812 -1.3130947 -0.5994904
H 0.10641086 -1.4620421 1.4064444
H 0.3441416 -0.19960943 -2.4265666
H -0.16716094 2.0418074 1.6959239
H -0.82637596 -0.89447653 -1.2188424
