10

O 0.27779048 -1.62135871 -1.43928925
C -1.19425808 -0.60553193 0.24543722
C -0.04553374 -0.68513476 -0.54512777
C -0.84975500 0.51839408 0.96480144
N 0.42693221 1.02988631 0.72288094
N 0.86334807 0.31516508 -0.37740912
H -0.47525905 -2.23197965 -1.42225583
H 1.85909749 0.19352473 -0.50189470
H 0.56437718 2.03114514 0.63976181
H -1.42673956 1.05588946 1.71309509
