11

C 0.70740294 -0.8486672 0.16481791
C -0.4430801 1.2808217 -2.4268544
C -0.059316147 0.42983925 -0.013277457
O 0.07238125 1.453149 0.8993957
C -0.77440274 -0.7886784 0.45401227
N -0.28516826 0.87020886 -1.3374999
H 1.3884317 -0.889655 1.0102857
H -1.4527665 -1.2705426 -0.24326938
H -1.0916057 -0.78030026 1.4910611
H 1.0329508 -1.3703104 -0.72874147
H 0.90517277 1.9141351 0.73007005
