11

C -0.5199862 1.1363066 0.47961584
C -0.12733455 -0.23097067 -0.030607771
C 1.2600043 -0.7140798 0.027153235
O 0.28170544 -1.183435 0.93875784
C -0.9889481 -0.77427566 -1.0797517
N -1.6805418 -1.1697655 -1.917164
H -1.5249586 1.1103929 0.9091302
H 0.18359734 1.4524902 1.2545024
H -0.50897837 1.8686236 -0.3327475
H 1.6117306 -1.4440701 -0.6976815
H 2.01371 -0.0512171 0.4487927
