11

C -0.11923742 0.35826561 -0.21420700
C -0.53562087 -0.42796977 0.97866874
C 0.83601907 -0.63595739 0.38006610
O 0.07389982 1.70873760 -0.02341197
C -1.15273808 -0.19160826 -2.52208799
N -0.69738184 0.03408852 -1.46286944
H -0.60780107 0.12741642 1.90737450
H 0.77529767 2.00844856 -0.61749570
H -1.28148684 -1.20324569 0.83305484
H 1.01923035 -1.55159547 -0.17182331
H 1.68981927 -0.22658064 0.91273096
