10

C -1.1611599 0.06297463 -0.5714272
C 0.3486107 0.18972045 -0.50848955
O 1.0021666 0.53633 -1.4624692
C 0.99010295 -0.1527944 0.8207384
H -1.5039834 0.17462257 -1.6032028
H -1.4870521 -0.90165526 -0.16848353
H -1.6182405 0.84473795 0.04640562
H 0.9133072 -1.2323552 0.9911187
H 2.0450718 0.13353537 0.81003946
H 0.4711766 0.34488386 1.6457703
