10

C -0.52831864 -0.8417954 0.6420889
C 0.994597 0.93153304 -0.34902528
O 1.7894418 0.7942965 0.5500992
C -0.29684955 0.16235952 -0.476135
H 1.1837074 1.6654199 -1.164729
H -0.55031055 -0.34383377 1.6166458
H -1.1048224 0.9055619 -0.5300379
H -1.4773802 -1.3652881 0.5000586
H 0.27511722 -1.5845641 0.67328286
H -0.28518212 -0.32368955 -1.4622484
