10

C -0.33662447 0.26302254 -1.2461908
C 0.68193275 -0.4530398 0.7721897
O -1.7392799 -0.11170128 0.6888995
C -0.6711649 0.28416458 0.13991386
H 1.6250116 -0.014619133 0.4533806
H 0.5232347 -0.31457907 1.8403116
H -0.30411378 1.3383205 0.40246087
H -1.0055331 -0.1688661 -1.9881467
H 0.605936 0.6892306 -1.5829105
H 0.6206012 -1.511933 0.52009183
