10

C -0.42403351 0.22074137 -0.33563910
C 0.92786573 0.75047691 -0.74474506
O 1.97007924 0.45953867 -0.20791837
C -0.37717315 -0.74903247 0.83469100
H -0.87122906 -0.24083671 -1.22769363
H -1.38216610 -1.09627781 1.08835396
H -1.05390555 1.09428223 -0.11595065
H 0.23998973 -1.62091870 0.59570986
H 0.91233560 1.45573113 -1.60619763
H 0.05823704 -0.27370465 1.71938982
