10

C -1.1600703 0.06100819 -0.5722974
C 0.34927323 0.1887705 -0.5101251
O 1.0013582 0.5433194 -1.4621403
C 0.9894839 -0.15432735 0.8208925
H -1.5020288 0.17032877 -1.6036006
H -1.4867043 -0.90112895 -0.16499525
H -1.6151173 0.84657246 0.04277531
H 0.9140505 -1.2332208 0.9923126
H 2.042716 0.1353704 0.81274897
H 0.46703893 0.3433074 1.6444296
