10

N -1.3179847 -0.64040357 -1.1620536
C -1.2094611 -0.74807084 0.088340685
O -0.18186185 -0.2143469 0.77485776
C 0.7670696 0.47639903 -0.031254616
C 1.8203609 0.9820271 0.8534796
N 2.6750546 1.3979151 1.5128182
H -2.1599813 -1.1101418 -1.4879708
H -1.8784846 -1.2553766 0.78846705
H 0.2902549 1.310223 -0.55795467
H 1.1950339 -0.19822454 -0.7787291
