11

O 0.22360541 2.333147 1.0163898
C 0.10207829 1.1782582 0.6423315
N -0.4513625 0.87443 -0.6772483
C 0.40728733 -0.106396824 1.174459
C -0.48891225 -0.4331405 -0.938778
C 0.09450494 -1.0986427 0.21155824
H -0.9372703 -0.8849166 -1.8127515
H 0.8815773 -0.268169 2.129383
H -0.0493776 -2.160207 0.38915443
H -0.61831766 1.6153344 -1.3427644
H 0.83618695 -1.0496972 -0.7917338
