11

O -1.46087339 1.69839800 1.30048569
C -0.73896664 0.83586034 0.83942622
N -0.57509954 0.81660783 -0.74869378
C 0.20083450 -0.11148838 -1.15149771
C 0.69988868 -0.88679470 0.01853335
C 0.06422767 -0.21844344 1.19061277
H -1.06553773 1.48504198 -1.33026753
H 0.44105727 -0.28394795 -2.19627027
H 0.42388298 -1.94235112 -0.13800286
H 1.80037237 -0.86176712 0.00188271
H 0.21021366 -0.53111508 2.21379129
