11

N 0.12173541 -0.8250452 1.0277209
C 0.06919687 0.6539902 0.99283564
C -0.5518971 -0.056879263 -0.039714415
N -1.7993816 -0.20622323 -0.5858414
C 1.7162824 -0.25577083 -0.28401914
N 1.4459707 -1.187212 0.5241646
N 0.66870296 0.750696 -0.3582087
H -2.2881474 0.66561824 -0.71786106
H 2.618975 -0.15950328 -0.87672883
H -0.17461023 1.4061042 1.7326344
H -1.8268269 -0.78577477 -1.4149822
