11

N 0.71824650 -1.79069083 -0.22934796
C -0.51383050 0.20705361 0.05009938
C 1.39378198 -0.82572769 -0.68356152
N -0.27920850 -1.13714254 0.61699182
C 0.37015366 0.09106142 1.12823228
N -1.68570581 0.84498772 -0.26058405
N 0.94271641 0.46451106 -0.18584063
H 2.23478094 -0.89278998 -1.36447969
H -1.98376133 0.72903497 -1.22070152
H 0.50989368 0.49886099 2.12150557
H -1.70706734 1.81084104 0.02768633
