10

N 0.68012834 -0.93668999 1.53215544
C 0.02602966 0.16095506 1.00866778
O -0.36128058 1.09198848 1.66463200
N -0.17416792 0.03103012 -0.38366172
C -0.64436165 1.04245652 -1.14713233
O -0.73850841 0.52640858 -2.38055790
H 0.96201954 -0.81438018 2.49449153
H 1.32685383 -1.45128499 0.95591791
H -0.00535841 -0.88336645 -0.79836775
H -1.07135435 1.23288303 -2.94614492
