10

N 0.6053866 -0.80771637 1.5074013
C 0.013829216 0.1687152 0.7428371
O -0.4024391 1.2158545 1.1868746
N -0.101449184 -0.1777863 -0.60658216
C -0.63968897 0.67296773 -1.5603948
O -0.7706851 0.34631807 -2.714996
H 0.8301495 -0.51296747 2.4453366
H 1.2539119 -1.4524982 1.0819083
H 0.13186818 -1.1051745 -0.93312
H -0.920883 1.6522875 -1.1492649
