10

N -0.41512018 0.06883092 0.037831064
C 0.97217417 0.2997719 -0.094915435
O -2.5189738 0.30655155 -0.22439635
N 1.7123464 -0.66428053 0.5604143
C -1.3383365 0.7790739 -0.64786524
O 1.4499182 1.2413388 -0.67139953
H 1.3432225 -1.5972786 0.6519223
H -3.1961877 0.7985955 -0.7029936
H 2.7027166 -0.6084376 0.36920363
H -0.7117597 -0.62416583 0.7221989
