11

C 0.61761474 -1.48424387 1.71262759
N -0.23938129 1.20576356 -0.21718943
C 0.07807479 0.65289259 0.93496168
O 0.18239231 -0.70531564 0.67407283
C -0.42441779 0.56016712 -1.52437378
O 1.02902874 -1.11537401 2.76682225
H -0.37105788 2.20546877 -0.17655486
H 0.53894922 -2.53497841 1.39275062
H -0.58548190 1.33907545 -2.27256589
H 0.46478598 -0.01689579 -1.78828766
H -1.29050684 -0.10655951 -1.50226366
