12

O -1.51160247 -0.40734276 -1.00385355
C 1.23136834 0.59244876 -0.47135225
C 0.15961229 0.34614176 0.55490131
O 1.93108820 -0.52386430 -0.57448065
C -1.20393953 0.62221546 -0.09328217
O 0.09727447 -0.94713588 1.12346928
H -1.96035477 0.70222000 0.70104388
H 2.63313782 -0.38895802 -1.22498117
H -1.16950048 1.56221620 -0.64783267
H 0.87083259 -1.43389045 0.80047495
H 0.32985671 1.10415193 1.33801173
H -1.40777324 -1.22820264 -0.50211859
