10

O 0.67733382 0.22436274 -1.92731328
C -1.15705190 0.08643709 1.04060273
N 0.86376572 -0.57655042 0.29523793
C 0.01842303 -0.55383618 1.38648454
C 0.08293206 0.03352466 -0.55504293
N -1.09996450 0.48747676 -0.28129133
H -2.03814197 0.28808968 1.63404776
H 0.31685435 -0.99988375 2.32627330
H 1.56636435 -0.16612993 -1.80517074
H 0.76948510 1.17650921 -2.11382794
