11

O -1.1984419 1.1633242 0.11295588
C -1.3761458 0.19618285 -0.92653805
C 0.31617984 -0.63265514 1.1247331
C -0.22875458 0.17817988 -0.016936908
O 1.6881454 -0.92922777 -0.09228707
C 1.2469671 0.29795223 -0.2074563
O 1.3017546 0.02773493 1.6739216
H 1.832669 1.1528822 -0.55326545
H -0.12667812 -1.5215385 1.589102
H -1.2637885 0.5756704 -1.9395145
H -2.1919072 -0.5085053 -0.76471436
