11

O -0.87633264 -0.47750834 1.4501653
C 0.4585803 0.022407899 1.6379124
C -0.6141919 0.6553289 -0.8615102
C -0.056295186 -0.7404524 -0.99049073
O 1.0574694 -0.20709117 -1.7080088
C -0.14552055 -0.08330469 0.3362512
O 0.509254 1.1414436 -1.5978966
H -0.46017116 -1.6931381 -1.3081492
H -1.5773319 1.1144698 -1.0413442
H 0.5139838 0.99224603 2.1322546
H 1.1905558 -0.7244017 1.9508168
