11

O 1.36598921 1.31567439 -0.72012584
C 0.18109910 0.60084336 -1.07474554
C -0.33584252 -0.12889466 0.10852052
C 0.84484338 -0.67077882 -0.60729426
O 2.00177934 0.08764515 -0.25223062
C -0.98205746 -0.01251219 1.38887056
O -1.58346959 -0.71356383 0.28705940
H -0.34767506 0.90455035 -1.96858515
H -0.65334075 -0.64665327 2.21423853
H 0.98999718 -1.65365306 -1.03685374
H -1.48132293 0.91734255 1.66114600
