10

N -0.6569171 -1.2216681 1.1886857
C -0.18008971 -0.30642503 0.25676146
C -0.78210986 0.729948 -0.37670398
O 0.14055176 1.268197 -1.2482072
C 1.232051 0.5196797 -1.0816442
N 1.119198 -0.42600635 -0.20855683
H -1.3165636 -0.8385732 1.8507327
H 0.10465812 -1.6865548 1.6638441
H -1.756501 1.1911592 -0.36189866
H 2.0957222 0.7702435 -1.683013
