10

N 0.98841995 -0.20874102 0.7336131
C -0.1691991 1.1228572 -0.514369
C 1.7252994 0.93049383 0.7105634
O 0.98036873 1.7467768 -0.06477335
C -0.18945043 -0.12040226 -0.011526738
N -1.107967 -1.1723872 -0.034114324
H -0.8332585 1.6850728 -1.1514441
H -0.70897925 -2.033986 -0.38563523
H 1.2487235 -1.0094723 1.2882128
H -1.9339573 -0.9402117 -0.57052636
