10

N -0.15122633 -0.37064744 0.61665606
C 0.13710163 0.63887323 1.49368566
O 0.92487121 1.53119883 1.28104880
C 0.39928679 -0.37455086 -0.72150491
C -0.62215799 -0.09267185 -1.74320250
N -1.43967423 0.10253702 -2.53566889
H -0.41692240 0.53531165 2.44456106
H -0.86831327 -1.03666334 0.86013366
H 0.87001742 -1.33613503 -0.94873715
H 1.16701707 0.40274769 -0.74697187
