10

N -0.69890285 -0.95495754 0.38205016
C 0.317689 -1.3751795 -0.29856533
O 1.259828 -0.5601065 -0.47631633
C -0.27075204 1.5994998 -0.6079071
C 0.27243474 0.91099554 0.5308196
N -0.71764123 2.178368 -1.5020663
H -1.4978199 -1.5600122 0.53945625
H 0.38383955 -2.3867445 -0.7136103
H 1.3073509 1.1576139 0.73626065
H -0.35602608 0.990523 1.4098787
