10

N -0.6063954 0.18042676 0.37449223
C 0.31961942 -0.57756037 -1.7316729
O 1.1413355 1.0394409 1.5677878
C 0.17508473 -0.83979166 -0.2904874
C -0.0176635 1.07561 1.225073
N 0.40134788 -0.37333646 -2.8657167
H 1.16018 -0.83829087 0.18262617
H -1.5654215 0.32854876 0.09989979
H -0.7335219 1.8333201 1.5928417
H -0.27456528 -1.8283672 -0.15484376
