13

C 0.19992599 -1.5204475 -0.6002393
C -0.20640221 -0.055516824 -0.5848093
O -1.5720222 0.13080966 -0.23196967
C 0.7348453 0.7692635 0.3035137
O 1.9412764 0.6189622 0.26530105
N 0.097649254 1.657081 1.108559
H 1.2498068 -1.6168653 -0.88560194
H -0.42458704 -2.076003 -1.3058679
H 0.08255539 -1.9666685 0.3964276
H -0.11376312 0.36034203 -1.5927765
H -1.7533875 -0.43414685 0.52882385
H -0.88914907 1.8126537 0.9743965
H 0.653252 2.3205361 1.6242428
