13

C -0.59749836 1.3388379 -0.6445193
C 0.8353537 -0.4413624 0.37034762
O 2.0065503 -0.03281632 0.021920381
C -0.12113165 -0.110589504 -0.6627677
O -1.1723337 -1.0510942 -0.7704457
N 0.6478114 -1.1592523 1.4710686
H -1.3681828 1.5244458 0.12748365
H 1.3941064 0.047494087 -1.0204058
H -1.0277437 1.5982255 -1.6169765
H 1.437175 -1.5864296 1.9314495
H 0.23116362 2.0271077 -0.4519042
H -1.9867619 -0.660726 -0.42894277
H -0.27850866 -1.4938407 1.6736923
