12

C -1.45675785 -0.72666856 -0.19217381
N 0.89706045 0.31558991 -0.93026242
C -0.16346419 -0.02912706 0.06856055
N 0.88957272 -0.44031436 1.04306932
C 1.21118544 0.86647072 0.41115008
O -0.13459994 1.31912245 0.62910774
H -2.08626626 -0.12052489 -0.84991132
H 0.55879528 1.06166038 -1.54626475
H -1.25887318 -1.68661968 -0.67445321
H 1.47260644 -1.17267056 0.62519096
H -1.98272435 -0.90176759 0.74944962
H 2.05346543 1.51484933 0.66653728
