12

C -1.1221994 -1.0136807 -1.698976
N -1.000101 -0.5881664 -0.319239
C 0.05544798 0.020588333 0.007923395
N 0.24484608 0.46717817 1.3131713
C 1.3558146 1.1483856 1.74728
O 1.5077536 1.5408252 2.8781972
H -1.9998738 -0.5322864 -2.145278
H -0.24281193 -0.7882485 -2.3228557
H -1.3036159 -2.0929775 -1.7261748
H 0.89203817 0.25106755 -0.6667391
H -0.48991972 0.28786924 1.9864694
H 2.1026213 1.2994455 0.94622135
