12

C -0.88275903 -1.3227338 -0.39778537
N 0.90018374 -0.049036577 1.1227086
C 0.5828883 1.3028007 0.5913862
N 0.69653815 0.8021213 -0.80071133
C -0.13257073 -0.1117321 0.04701508
O -0.82301635 1.0171801 0.6648056
H -1.6725576 -1.040385 -1.0997875
H -0.19541326 -2.011789 -0.893786
H 0.96806633 2.2515001 0.9743488
H -1.3291578 -1.8229456 0.4650422
H 1.8021946 -0.35893363 0.7468942
H 0.08560352 1.3439536 -1.4201304
