10

O 1.4149309 1.4243255 -0.86279154
C 0.691993 0.623133 -0.401331
C 0.35897496 -0.8720499 -0.5309625
O -0.579135 -1.031575 0.51227653
C -0.9029955 0.2978646 0.7578637
O -1.0855863 1.015674 -0.29080224
H -0.080834106 -1.0362326 -1.5181904
H 1.2243748 -1.5201851 -0.3645258
H 0.42432776 0.66007066 1.0143323
H -1.4660505 0.4389747 1.6841308
