10

O -1.4963216 1.462749 1.3008789
C 0.9903654 -0.85790896 -0.5104306
C -0.07452768 -0.3380095 -1.2871275
N -1.0057367 0.46614805 -0.8113463
N 1.1172335 -0.56149936 0.77277356
C -0.8274527 0.74116296 0.49796918
N 0.19163226 0.23896627 1.2361374
H 1.738018 -1.5157918 -0.9357387
H -0.48154825 0.96829265 2.0753655
H -0.15166232 -0.60410935 -2.3384812
