11

O -0.2770168 1.6394885 2.165536
C -0.21267194 0.86877024 1.2326512
C 0.75170934 1.0203743 0.13465746
C 0.7798128 0.13641283 -0.8720758
N -0.102950856 -0.92027974 -0.8779119
C -0.993073 -1.0433115 0.15429679
N -1.0872043 -0.24703497 1.1537881
H 1.4331964 1.8601823 0.16483042
H 1.4641713 0.18368071 -1.7122197
H -0.09919655 -1.5947641 -1.6241853
H -1.6567764 -1.9035183 0.08063273
