11

O -1.04285857 -0.30879085 1.20704808
C 0.37064220 -0.35836888 0.96745121
C 0.43440381 1.18939963 0.95437801
C -0.48764459 -0.14007836 -1.26094730
N 0.48171816 -0.72878717 -0.47376953
C -0.82226029 0.90636378 0.51561806
N -1.21702643 0.83940718 -0.82100507
H 1.11107769 1.76507725 0.32288210
H 0.84616940 -1.62497732 -0.75275529
H -0.60957008 -0.50815676 -2.27754557
H 0.93534869 -1.03108824 1.61864529
