9

O 0.75328475 0.24502431 -2.0777245
C 0.26414376 0.107409924 -0.8376835
N 0.98886377 -0.31615037 0.17609379
N 0.07805383 -0.28281274 1.1809705
C -1.1048776 0.14765929 0.7201082
N -1.0292093 0.40818813 -0.56878245
H 1.6864496 -0.0053951563 -2.0512059
H 0.3432316 -0.559421 2.111736
H -1.9799403 0.25549752 1.3464878
