10

O -1.687876 -0.59253293 -1.5285876
C -0.8065006 -0.26820365 -0.7795134
C -0.37525943 -0.61849797 0.66062343
C 0.77081335 0.39998835 0.44448158
N 0.24144499 0.6098583 -0.8985353
H -1.1099643 -0.3504302 1.4220744
H -0.06414954 -1.6569287 0.7916073
H 0.7266716 1.2881254 1.0824283
H 1.7788155 -0.023612127 0.4633544
H 0.5260043 1.2122332 -1.6579335
