11

N 1.729874 -1.4102395 1.2688997
C 0.9794301 -1.6435497 0.3665891
C -1.499304 0.41604275 -1.0241636
O 0.50974184 0.8655192 0.21680894
C -0.04378375 0.64604956 -1.0732228
C 0.3374528 -0.13689071 1.1195765
N -2.636959 0.23303865 -0.9555151
H 0.69895494 0.21552998 2.0799851
H 0.1689748 1.5495927 -1.6492778
H 0.43948978 -0.21975768 -1.5412948
H -0.68387115 -0.5153353 1.1916151
