11

N -1.57286158 0.69647986 -0.60382496
C -0.95626875 -0.58943008 -0.51417296
C -2.04177378 1.77153279 -0.61891974
O -0.30608804 -0.75690107 0.70953324
C 0.76259947 0.12828503 0.94307861
C 1.85044230 -0.05321317 -0.04006491
N 2.68372473 -0.21461660 -0.82086289
H -1.72453180 -1.36090430 -0.56048218
H 0.43643669 1.17602450 0.92075445
H 1.13207073 -0.10383630 1.94380483
H -0.26375005 -0.69342063 -1.35884329
