10

O 1.364284 1.5269362 1.9804587
C 0.93860936 1.5817257 0.8526092
C 0.25011557 0.46595585 0.17832796
N -0.2251267 0.4730644 -1.0269905
O 0.07097369 -0.6922991 0.83943176
C -0.7674179 -0.7836937 -1.1851033
C -0.5810374 -1.4852581 -0.040074572
H -0.8272323 -2.479681 0.2971777
H 1.0209962 2.4756522 0.2096408
H -1.2441643 -1.0824028 -2.1054776
