10

N 1.55489911 0.40082267 0.21983189
C 0.53840737 0.84786306 0.87874354
O -0.69271918 -1.04010357 0.08080977
C -0.59316795 -0.08990732 1.15509192
C 0.72746707 0.46147758 -0.90480818
N -0.37603602 -0.32713124 -1.09605964
H -0.39350439 -0.68450470 2.04824257
H -1.53823545 0.45357459 1.25323086
H -0.28124320 -1.01504884 -1.83729605
H 1.05413269 0.99295777 -1.79778622
