10

N -0.82414365 0.8085636 0.64719725
C 0.59807837 0.65168786 0.06715777
O -0.41764745 -1.1200489 -0.5261496
C -0.36715505 -0.5266174 0.7207662
C 0.2401804 -0.045650423 -1.260731
N 1.4009392 0.13800219 0.89586586
H -0.54180366 -1.188739 1.5655385
H 1.0929673 -0.4545935 -1.8006465
H -0.4588488 0.5107938 -1.882723
H -0.7225668 1.2266017 1.5737244
