10

N 0.80810624 -0.1553461 1.6809675
C -0.37938064 0.13998653 1.3657603
O -0.7923747 0.20632716 0.090203345
C 0.21419774 -0.0870979 -0.87335485
C -0.38690153 0.04032805 -2.204471
N -0.8176748 0.12851699 -3.2729867
H 0.9217878 -0.1545576 2.6913834
H -1.2175195 0.37769288 2.0257173
H 0.59602904 -1.103412 -0.72989017
H 1.0537304 0.607562 -0.77332866
