9

N -0.7738994 0.24379276 -0.87524307
C 0.5736296 0.31031564 -0.76171046
C 0.86979455 -0.111439675 0.5150169
C -0.38703775 -0.40932527 1.0872055
N -1.3795696 -0.19084522 0.23644899
H -1.3388395 0.4784048 -1.6761037
H 1.1979266 0.64460415 -1.5774943
H 1.8458887 -0.1923608 0.9695543
H -0.60789317 -0.7731464 2.0823255
