9

N -0.2718306 -1.2788839 -0.7678379
C 0.5448035 0.7089116 -0.048402756
C 0.69938743 -0.35922354 -0.91795075
C -0.6337113 0.40294635 0.64605147
N -1.145391 -0.83839667 0.12511037
H 1.1758367 1.5778512 0.07181275
H 1.4899436 -0.5289093 -1.639603
H -1.2717454 1.0254545 1.2619523
H -0.58729297 -0.7097501 1.2688675
