10

N -0.11084566 -0.94313989 1.30259908
C 0.04250320 -0.12666567 0.18061277
C -0.62325247 1.53884722 -1.25956806
O 0.63365834 1.12860068 -1.53241683
C 1.04313885 0.11718083 -0.68011930
N -0.96590265 0.75941391 -0.20385372
H -0.91947030 -1.55024492 1.24175260
H 0.71492356 -1.49574757 1.48775362
H -1.84499333 0.86358404 0.27925353
H 2.03024011 -0.29182892 -0.81601357
