10

O 0.019336602 0.30303752 1.5645856
C -0.98793447 -0.51127803 0.9721513
C 1.3795635 0.24727094 -1.8014218
C -0.15402436 0.3824015 0.17186002
N 0.9332575 -0.13381729 -0.6231661
H -0.77633595 -1.5797703 0.96366644
H 1.4304699 -0.88690835 -0.1560109
H 0.71171266 1.0854845 -2.1032407
H -2.0129673 -0.23350397 1.2155607
H -0.5430777 1.3270835 -0.20398423
