10

O 1.1838403 -0.82918257 0.5077713
C 0.35608912 0.10147138 -0.23121636
C 0.67278945 -0.17015563 1.5799304
C -1.4676033 0.07269568 -0.5711307
N -0.42494175 -0.6845184 -1.1536434
H 1.2756473 0.755769 1.708765
H -1.426143 1.0836406 -1.0232519
H -0.63734436 0.39220914 0.6007506
H -0.4684969 -1.6252294 -0.74147695
H 0.936163 0.90330034 -0.67649806
