10

O 1.34501641 -0.70828456 1.26827940
C 0.54252088 0.33575555 0.75543308
C -1.01804840 0.35663973 -1.32970192
C -0.61273161 -0.20387127 -0.05881058
N -0.28551937 -0.65003321 -1.47731077
H 1.58468582 -1.27917465 0.52558872
H -1.55682370 1.07515283 -1.93746436
H -1.30186383 -0.84842957 0.48712084
H 0.17862152 0.88629319 1.63014543
H 1.12414229 1.03595157 0.13672011
