10

O 1.0862521 -1.2555522 1.0783848
C -0.6473612 0.03696737 -0.004369105
C -0.9173897 0.8165986 -1.1930149
C 0.6858598 0.04884404 0.71059865
N -0.6203145 -0.36912498 -1.471553
H 0.620189 0.6134409 1.6473771
H 1.0397657 -1.8059766 0.28477383
H 1.4332634 0.5441611 0.07230991
H -1.4796902 -0.36144078 0.576061
H -1.2005744 1.7320826 -1.7005684
