10

O 1.8304696 -0.16071916 0.779786
C 1.1334062 -0.80893886 0.034217123
C -0.11963974 -0.26943934 -0.5615415
C -1.0597514 0.38790452 0.39405158
N -0.29085028 1.1782701 -0.5403981
H 1.3991233 -1.8479859 -0.24600033
H -0.50964886 -0.7853827 -1.4347476
H -2.1259446 0.3283273 0.19415341
H -0.771219 0.39545915 1.4443839
H 0.5140548 1.5825045 -0.063904524
