12

N 0.95432806 -0.57791674 -0.1627222
C -0.3361452 -0.50945944 -0.49686104
N -1.1768569 0.49246675 -0.15531227
C 1.4139663 0.49993864 0.71111506
C -0.69977885 1.441325 0.6349918
C 0.62727034 1.5473189 1.1945329
N -0.8645415 -1.5270143 -1.2315447
H -0.22114904 -2.1317506 -1.7166793
H 2.4914737 0.43653634 0.85281825
H -1.7601739 -1.3447243 -1.6581076
H -1.4182814 2.2294247 0.85481495
H 0.98988813 -0.5561449 1.172954
