10

C -0.9376526 -0.72352284 0.89502996
C -0.10385915 0.24696285 -1.0307434
N 0.17081687 -1.323501 0.80164695
C 0.39683968 0.9828921 0.08482544
N -1.0137656 0.5088247 0.11543553
C 0.88495636 -0.4278478 -0.11393309
H -1.7916533 -1.0411617 1.4820161
H 0.76948994 1.9840479 0.25126174
H 1.901238 -0.6672824 -0.40901306
H -0.27641022 0.46058816 -2.0765262
