10

C -1.0836291 0.24554639 -0.25214046
C -0.31952128 -0.5968633 -1.0501442
N 0.9501055 -0.89011306 -0.76478475
C 1.4455746 -0.3268867 0.3364403
N 0.81226677 0.49063015 1.1756668
C -0.45495602 0.77112865 0.8700019
H -2.1142964 0.4797701 -0.49184436
H -0.7349133 -1.0531453 -1.9475881
H 2.481425 -0.559644 0.5753451
H -0.9820557 1.4395769 1.549048
