11

N -1.0826234 -1.2241797 -1.2770545
C 1.1673476 -0.38499358 -0.47330698
C -0.5566405 0.37163863 0.73840183
N 1.6869314 0.37184176 0.4604397
C -0.29500732 -0.4349815 -0.4247648
N 0.6393183 0.8093739 1.1867135
H -0.6131656 0.39294967 -1.1481353
H -2.0478897 -1.1777952 -0.94953555
H 0.80945826 1.4815779 1.9144716
H -1.4952081 0.6719874 1.1820794
H 1.7874793 -0.8774192 -1.2093089
