11

N -1.7756 0.5199376 -0.27728754
C 0.45295408 0.12100279 -0.11492035
C -0.20162325 -0.6432616 0.8296445
N -1.525417 -0.3596113 0.6891537
C -0.58366364 0.8228878 -0.77241766
N 1.8355796 0.24972558 -0.32958636
H 2.3599465 -0.51593757 0.07112335
H 2.0677109 0.33426222 -1.310013
H 0.16247077 -1.3379132 1.5720582
H -2.292673 -0.7308207 1.2216462
H -0.49968436 1.5397285 -1.5794009
