11

N -0.38307917 -1.3904114 0.75357044
C 0.8343619 -1.0566308 0.9805009
C -1.2831571 -0.51634395 0.26336306
N -0.9621454 0.528726 -0.4806644
C 0.24204922 0.76029354 -1.2413547
N 1.0622591 1.5893302 -0.7160097
H 1.1633478 -0.018089442 1.0360545
H -2.3367162 -0.7620084 0.3629599
H 1.5428373 -1.8465818 1.2283959
H 1.8697509 1.6668818 -1.326782
H -1.7495079 1.0448341 -0.8600339
