11

N 0.29561087 0.30763412 2.0008812
C 0.11587839 0.10424309 0.7636832
C -0.63545763 0.84401214 -0.343564
N -0.4268051 0.08141288 -1.5750663
C 0.29305133 -0.91569704 -1.2465701
N 0.6500426 -0.9882937 0.089886054
H -0.17897874 1.1561486 2.3018172
H -1.7052385 0.91336435 -0.11979368
H -0.26051405 1.8668989 -0.46507
H 0.6283766 -1.6842549 -1.9389325
H 1.2240343 -1.6854686 0.5327289
