11

N 0.2957155 0.30479985 2.0006406
C 0.11370115 0.104193054 0.76385
C -0.6349648 0.8456482 -0.34202564
N -0.42551666 0.08409968 -1.5763462
C 0.29131112 -0.9160634 -1.2483733
N 0.6459929 -0.9919984 0.09019222
H -0.16772647 1.1608714 2.3002174
H -1.7065059 0.9139119 -0.1210705
H -0.25869524 1.868055 -0.46100536
H 0.6251812 -1.6850953 -1.9391845
H 1.2215073 -1.6884222 0.5331049
