10

O 0.9235784 -0.6073347 -2.048203
C 0.39468685 -0.202078 -1.0570152
C -1.5020293 0.38963646 0.09377462
O -0.82235557 0.44212246 -1.082481
C 0.9209974 -0.29115137 0.37396115
O 0.0047636214 0.26762933 1.2947471
H 1.1440955 -1.3414257 0.5960907
H 1.8519375 0.2824658 0.4345809
H -0.92908645 -0.30412775 1.1561478
H -1.9865878 1.3642634 0.23839709
