10

O -0.015983062 -1.3750119 -0.9605298
C -0.4042743 -0.38643405 -0.05186114
C 0.68566954 0.008748768 0.9443107
O 0.6334313 1.3844272 0.47541893
C -0.26076326 1.0712241 -0.5036819
O -0.6962674 1.7694442 -1.3628961
H -0.6569273 -1.3908061 -1.6819206
H -1.3813052 -0.5835073 0.41043708
H 1.6545194 -0.44327217 0.7255645
H 0.4419003 -0.054812845 2.0051584
