10

O 0.37849526 0.11054042 -1.25037976
C 0.68257224 -1.01432220 -0.43128982
C -0.45157878 0.42596092 0.87909679
O 0.49084340 -0.62111943 0.90112966
C -0.35426235 0.98978533 -0.52927598
O -0.82092821 1.99389962 -0.97499001
H 0.01350842 -1.83964788 -0.70939970
H -1.47597116 0.07271120 1.06259158
H 1.72775443 -1.29491292 -0.57699467
H -0.19043323 1.17710484 1.62951196
