11

N 0.47176045 -0.5022166 2.060466
C -0.15190808 1.1624795 -0.9900596
C 0.18976672 1.1518238 0.3415097
C 0.18283907 -0.21017937 0.7926708
C -0.43818444 -0.02381957 -1.7428029
N -0.413718 -1.2235612 -1.2715862
O -0.083137386 -1.3030131 0.07705533
H -0.695895 0.009753065 -2.7971952
H 0.46401754 -1.4497303 2.408958
H 0.6904902 0.28364 2.653766
H -0.21603103 2.1048238 -1.532782
