11

N -0.011601613 1.7511595 0.6752126
C -0.22810374 -1.0248972 -0.07100083
C -0.8567732 -0.54380375 1.0179425
C 0.5432807 -0.006465435 -0.7779078
C -0.6930013 0.87421465 1.3230206
N 1.079967 -0.63612914 -1.7799016
O 0.6651335 1.26665 -0.47935262
H 1.6885495 -0.21707454 -2.4752455
H 0.46945155 -1.6388452 -1.3026837
H -1.4778337 -1.1418176 1.679553
H -1.1790687 1.3170087 2.1903634
