11

C -1.4316752 1.6418216 0.30436626
N -0.8809394 1.4372842 1.3404701
C -1.0415072 -0.28370374 0.15378504
C 1.3546498 -0.3039638 -0.19042265
N -0.0051978747 -0.43490282 -0.70234716
H 1.4930323 0.68202186 0.26910782
H -2.0300987 -0.44896507 -0.2565915
H -0.8878475 -0.74075323 1.1273216
H -0.16381285 -0.03423347 -1.6155378
H 1.5273647 -1.0665295 0.57487386
H 2.0660315 -0.44807628 -1.0050255
