11

C -0.42533345 -0.91494672 0.49363615
N -0.16029372 0.46290543 0.77385962
C 1.41348796 -1.93414264 -1.05917476
C -0.06039668 1.29559624 -0.42012173
N 0.56797613 -1.53850194 -0.35410586
H -1.01008386 1.25652708 -0.96534478
H -0.47070670 -1.48116736 1.42731173
H -1.39161816 -1.00270171 -0.01671383
H 0.10879834 2.32986200 -0.11129570
H 0.74602343 0.98935456 -1.10007658
H 0.68214649 0.53721509 1.33202576
