11

O 1.09991146 0.09713274 0.51549373
C 0.97654568 -1.07435182 -0.12376080
C -0.12401424 0.76540804 0.80476041
O -2.02812274 1.49985242 -0.43793762
C -0.87058371 1.17248343 -0.45235926
N -0.14044725 -1.53764002 -0.48548089
H -0.24713937 1.20295192 -1.37045336
H 1.96492532 -1.51941929 -0.26858714
H -0.77845064 0.15251503 1.43105910
H 0.17065067 1.66714647 1.35061618
H -0.02327503 -2.42607883 -0.96335073
