12

C 1.4007659 -0.29220542 0.88261837
C 0.33605495 -0.50457186 -0.18669444
C -0.59010875 0.6951037 -0.31872278
O -0.22189899 1.8347448 -0.108550966
N -1.8664281 0.39724573 -0.7027823
H 2.114449 -1.1209157 0.887781
H 1.9409479 0.6400447 0.6977262
H 0.9504755 -0.22291514 1.8776715
H -0.2466421 -1.4128124 0.013025818
H 0.81174797 -0.64612895 -1.1661084
H -2.1415145 -0.5330381 -0.96537906
H -2.4878492 1.1654487 -0.91058475
