9

N -0.69516456 -1.728607 0.72542745
C -0.039617103 -0.7599542 0.26805687
O -0.46147996 -0.009617433 -0.8151397
C -0.3103551 1.3514947 -0.78543705
O 0.06719799 1.9771905 0.15623756
C 1.284487 -0.46582982 0.7882078
N 2.3507411 -0.28722858 1.1909994
H -1.5845 -1.8223174 0.23651846
H -0.61130947 1.7448692 -1.7648706
