9

N -0.14233913 -1.948436 0.08799904
C 2.647492 -0.019795883 -0.0101667
O -0.2686462 1.544604 1.1767383
C -0.76345176 1.3616269 0.10912552
O -0.64157903 0.21470737 -0.63103753
C 0.20725337 -0.77130187 -0.15891375
N 1.5199319 -0.3716292 -0.07790228
H -1.4132512 2.048521 -0.45090488
H -1.1454098 -2.0582962 -0.04493773
