9

N 0.12024505 -1.7923385 1.2027832
C 0.5136936 -0.1419429 0.55601865
O 0.33916324 -0.0256435 -0.7907519
C -0.8975954 0.38745713 -1.2434068
O -1.8017973 0.7272223 -0.5532621
C -0.7403302 -0.97675854 1.3277757
N 1.409304 0.42821375 1.2152768
H 1.939378 1.0697914 0.62513983
H -0.88206095 0.32399875 -2.339573
