9

N -0.71796834 -1.64739121 0.77138245
C 0.01691098 -0.77158705 0.25977218
O -0.30489204 -0.04340298 -0.87240374
C -0.33003597 1.32283537 -0.76809999
O -0.18750196 1.93614070 0.24266746
C 2.37574108 -0.30077544 1.12920214
N 1.28414668 -0.52186184 0.73006678
H -1.60643117 -1.70082308 0.27775196
H -0.52996937 1.72686550 -1.77033906
