11

C -0.9994684 -1.0101116 1.8729017
N -0.23449981 0.79889566 -0.9313153
C -1.0690144 0.41950732 0.016105538
O -0.34572232 -0.46312845 0.80431217
C 1.1621975 0.39776292 -1.1441777
O -2.1240554 -0.80819935 2.2090125
H -0.6293181 1.4477701 -1.5951891
H 1.5407228 0.9201354 -2.025416
H 1.2211883 -0.68023205 -1.3111398
H 1.7711009 0.66413873 -0.27694064
H -0.29313114 -1.6865387 2.3818464
