11

N -0.42281508 -1.649598 -1.0653012
C -0.2327818 -0.48779237 -0.35734633
C 1.0113881 -0.13224299 0.20143373
N 1.1601677 1.0153656 0.82533115
C 0.06452456 1.789842 0.8730272
N -1.1202883 1.4896559 0.3704162
N -1.2761424 0.32832316 -0.24850768
H 0.17553513 -2.4342725 -0.86416495
H -1.3888788 -1.8815595 -1.2393106
H 1.8766719 -0.78948224 0.13366702
H 0.15261894 2.7517612 1.3707553
