11

N -1.4066138 0.34400004 1.4238739
C -0.27192613 -0.09839098 -0.5628706
C -0.24684653 0.71489745 1.998018
N -1.4143509 0.067038886 0.13546443
C 0.9605599 -0.0027148465 0.06812496
N 0.92204434 0.55158335 1.286373
N -0.4347206 -0.34996933 -1.9056901
H 0.31659785 -0.82260233 -2.381645
H 1.9145954 -0.28229508 -0.36908934
H -1.3654785 -0.65741765 -2.15104
H 1.0261391 0.5358706 2.4584808
