12

C -1.2987895 -1.9075395 -0.54860085
C 0.49613288 -0.8579036 0.4875224
O -0.5850447 -0.7008981 -0.27201086
N 1.0660731 0.36036327 0.6632923
C 0.6821782 1.6165981 0.1814035
N 1.389767 2.624054 0.48442426
H -1.306325 -2.0567904 -1.6317344
H 1.9050316 0.3794686 1.2292904
H -0.8042748 -2.74189 -0.04472028
H -0.22000413 1.6056497 -0.43268484
H 0.9977469 3.4643533 0.068949535
H -2.3224916 -1.7854655 -0.18513136
