12

C 0.17352319 -1.89160525 -1.42064890
C 0.56263857 -0.76003332 0.57062392
O 0.01410280 -0.70513349 -0.64040084
N 0.33456850 0.42560528 1.18880371
C -0.33522802 1.56761020 0.73612784
N -0.41652075 2.56898696 1.50950159
H 0.72746169 -1.63034772 -2.32641242
H -0.73434391 1.48264163 -0.27611924
H 0.71636126 -2.63761054 -0.83465906
H -0.92466332 3.32196644 1.05429289
H -0.82165289 -2.25630835 -1.68822010
H 0.70375282 0.51422822 2.12711023
