12

C 0.55547595 -0.647277 -1.8503835
C -0.081723996 -0.7402091 -0.4804841
O -0.6057244 -1.7437426 -0.049810153
N 0.009099509 0.42060545 0.27041465
C -0.47390604 0.5384395 1.5642525
N -0.3415975 1.6413811 2.177689
H 0.1318859 -1.4243375 -2.485658
H 0.4012979 0.33410287 -2.3118079
H 1.6345696 -0.81957626 -1.7610599
H 0.44862595 1.2465179 -0.11497948
H -0.9385945 -0.3776422 1.9326401
H -0.73940843 1.5717379 3.1091864
