12

O -2.066596 -1.4871792 0.30213156
C -1.6668726 -0.26289427 -0.03657973
C 1.5503299 -0.19367182 -0.111398034
N 0.5773903 -0.9535964 -0.4555207
N -0.019185146 1.2770908 -0.7594361
C -0.45049378 0.0013188451 -0.64142066
N 1.1460849 1.1436566 -0.13271576
H -2.41743 0.51312774 0.04760417
H 2.5556931 -0.48884752 0.1652457
H -1.3103793 -2.0783434 0.21251564
H 0.3213031 0.59713316 1.5164194
H 1.7801553 1.9322056 -0.10684541
