12

O 0.4031327 1.1743946 -2.1675677
C 0.7541148 1.2890648 -0.8140061
C 0.21066244 0.16817479 0.0205725
N -0.7476666 -0.615436 -0.4331056
N -0.9787489 -1.4178371 0.62421876
C -0.16381049 -1.0901808 1.6428907
N 0.6051903 -0.085047215 1.2983261
H -0.487391 0.80110455 -2.2071795
H 0.40189156 2.237602 -0.378337
H 1.8466567 1.2883227 -0.74768746
H -1.674632 -2.1433537 0.56883365
H -0.16939951 -1.6068088 2.5930412
