11

C -0.8402827 -0.13941072 -0.7113135
C 0.40302768 -0.92773795 -0.292753
O 0.65889263 -0.43025732 1.0085462
C 0.35302648 0.93389535 0.92199934
O -0.73682535 1.0669904 0.03118486
H -1.7637227 -0.66085374 -0.4347598
H -0.86358696 0.083271086 -1.7837547
H 0.24895889 -2.0065746 -0.22902042
H 1.2516409 -0.7169873 -0.96030354
H 0.07381645 1.2959194 1.9149007
H 1.2150545 1.5017456 0.5352737
