9

O 0.8145896 -1.673214 -0.7643169
C 0.270057 -0.56292844 -0.24730095
N -0.3101211 -0.51469207 0.94159627
N -0.69129425 0.7576265 1.0229656
N -0.4076825 1.5265304 -0.005382527
C 0.21530148 0.7070171 -0.8489731
H 0.6973597 -2.3874848 -0.12530194
H -1.1719904 1.1107761 1.8355937
H 0.5837806 1.0363696 -1.80888
