9

O 0.48580024 1.691993 1.6366749
C 0.22845736 0.8715615 0.80066144
N -0.068561785 -0.6304563 -0.98855203
C 0.8186575 0.36023888 -0.3827579
C -1.069708 -0.72863823 -0.1439863
O -1.0203545 0.0936743 0.8784738
H -1.8974112 -1.4196699 -0.22931662
H 1.6005094 0.8022137 -0.9773171
H 0.92261094 -1.0409172 -0.5938802
