10

C -1.2486848 -0.28094286 -0.4573907
C 1.2280383 0.147561 -0.55888116
N -1.3886232 0.8107453 0.20228364
C -0.064426504 0.58203256 0.8402824
N 1.062825 1.2300347 0.11028069
C 0.12382478 -0.7094328 0.021265851
H -1.961454 -0.70353055 -1.1639411
H 0.31335688 -1.7086776 0.4119805
H 1.9725405 -0.028928796 -1.3331789
H -0.037396953 0.6611391 1.9272988
