10

C 1.01132089 0.89724607 -0.11991641
C -0.33577335 -0.00807989 0.96756301
N 0.34921598 1.31454194 0.89709075
C -0.96340235 -0.49425497 -0.82153324
N -1.60763733 -0.05481461 0.19748074
C 0.44642406 -0.49914656 -0.26577804
H -0.35243363 -0.48540130 1.94760373
H 1.75210318 1.45883474 -0.68633404
H -1.38741035 -0.75087889 -1.79116983
H 1.08759267 -1.37804663 -0.32500657
