10

C 0.10953704 1.0987775 0.30734962
C -0.4433489 -0.68437755 -0.044446025
N 1.1483077 0.5727738 1.0570185
C 0.6250712 -0.619348 0.9513982
N 0.32660526 1.2390444 -1.0557694
C -0.23714739 0.07990084 -1.2729921
H -1.2003374 -1.4653695 0.00542708
H -0.7930255 1.5036515 0.76958436
H 0.9650373 -1.459686 1.5538688
H -0.5006993 -0.26536742 -2.2714388
