11

N 1.9164429 0.6242366 -1.2073458
C 0.88752115 0.26612782 -0.56596553
C 0.054093808 1.1211793 0.30394274
C -0.9337039 0.38212863 0.7976629
C -0.80696285 -1.0203803 0.27709538
O 0.35001323 -0.9929137 -0.5586289
H 2.3072484 -0.15447903 -1.7352163
H 0.27230924 2.1682496 0.46617764
H -1.7246683 0.69422984 1.4687002
H -1.6697544 -1.331569 -0.32064793
H -0.6525395 -1.7568097 1.0742257
