9

O 1.681596 0.9292835 0.6062802
C 0.5641234 0.30718958 0.19433057
N 0.43111333 -0.24668957 -0.9983724
N -0.80889183 -0.7277724 -0.95650744
N -1.4807415 -0.5301171 0.1565414
C -0.6253339 0.1360206 0.9263982
H 2.3240876 0.8943308 -0.1143064
H -1.2083671 -1.2192038 -1.7400672
H -0.87758607 0.4569586 1.9257028
