9

O 0.76870394 1.3007393 0.92330295
C -1.3540025 0.38914108 0.27855316
N -1.6200136 -0.782531 0.5365334
N 0.5077277 -1.5468224 -0.85123485
N 0.82282966 -0.33176878 -0.69883937
C 0.14654022 0.46343634 0.107393384
H 0.97119004 -1.8345138 -1.7273477
H -1.9217498 1.32613 0.33982804
H 1.6787746 1.0161895 1.0918112
