9

O 1.41984556 1.39435846 0.97966363
C 0.59545971 0.66009566 0.48364341
N -0.34798258 -0.88563184 -0.87907830
N 0.64362259 0.10753638 -0.79826021
N -1.20160035 -0.71896192 0.16869951
C -0.67161096 0.11140435 1.00009586
H 1.55185834 -0.16301774 -1.15279303
H -0.86338900 -0.85087925 -1.75404040
H -1.12620322 0.34509592 1.95206925
