9

O 1.6812314 0.92879134 0.6059131
C 0.56346786 0.30625165 0.19297266
N 0.43093497 -0.24788804 -0.9991362
N -0.8114955 -0.7272516 -0.9560634
N -1.4811621 -0.52856517 0.15711708
C -0.62422794 0.13723063 0.9248151
H 2.324692 0.89601237 -0.11284623
H -1.2108926 -1.2211422 -1.7370161
H -0.872548 0.45656103 1.9242437
