17

C -1.783096 -1.0616624 -0.9601308
N 0.9125402 0.68901956 0.7842839
C 0.4723486 -0.3906876 -1.7275157
O -1.2792526 0.37963745 1.338907
N -0.5495444 -0.35183036 -0.7008325
C -0.36821863 0.23136798 0.5322772
C 1.2078493 1.1997586 2.1121216
H -2.4492779 -0.9020767 -0.11276633
H 2.1808496 1.6964414 2.092052
H -0.012193324 -0.42762798 -2.7084036
H -2.26091 -0.68703926 -1.873806
H 1.2154188 0.4190084 2.8845599
H -1.6054137 -2.139709 -1.0801076
H 1.1273441 -1.2697573 -1.6402844
H 1.665971 0.16648787 0.36065477
H 0.44517073 1.9312675 2.3875875
H 1.0804147 0.51740134 -1.6885972
