17

C 2.579706 -0.20606239 -1.6317707
N -0.8296075 -0.0068986313 0.36174822
C -2.211057 -0.43549713 0.3113313
O -0.2154857 -1.5027469 -1.2590952
N 1.432811 -0.31894702 -0.21561155
C -0.47037083 1.0376629 1.3079718
C 0.07848882 -0.66274637 -0.4312323
H 1.8417561 -0.47176492 -2.3920848
H 1.6684654 0.35590404 0.49759302
H -2.5275488 -0.8419525 1.2801404
H 2.2674835 -1.013939 -0.46441796
H -2.2968345 -1.2072564 -0.45300046
H -0.07553796 0.63290167 2.2500906
H -2.8582659 0.40894562 0.051392354
H 2.7175481 0.88165534 -1.6299763
H -1.3670707 1.6194191 1.5342067
H 0.26552 1.7313229 0.88271475
