11

C -1.3078294 -0.7872967 0.6805498
N -0.12892272 -0.050066844 0.26520938
C 0.39697495 0.10111285 -0.97206223
C 1.489216 0.9038459 -0.7667342
N 1.56958 1.1917776 0.55657023
N 0.5910082 0.61395156 1.1743665
H -1.3636616 -0.70966125 1.7661793
H -2.2041636 -0.35290524 0.2326838
H -1.2200096 -1.8369544 0.39019918
H -0.030548064 -0.3580428 -1.8493711
H 2.208356 1.2842392 -1.4775903
