11

N 1.9170543 0.621395 -1.2056913
C 0.88882583 0.267338 -0.5654307
C 0.054580476 1.1199508 0.30416748
C -0.9329758 0.38251054 0.79573727
C -0.8069648 -1.0178474 0.27588078
O 0.34937093 -0.9923855 -0.560854
H 2.3067558 -0.15740758 -1.7336524
H 0.27074432 2.1667655 0.46685943
H -1.7241153 0.6937817 1.4682722
H -1.671653 -1.3310597 -0.31948566
H -0.6516226 -1.753041 1.0741972
