10

O 1.8974414 0.7329968 -0.10761316
C 0.13054544 -0.97057015 0.23318551
C 0.6138824 0.33531407 0.030120192
C -1.2150763 -0.85828096 -0.05844047
N -0.48132187 1.158325 -0.40963033
N -1.5677164 0.39993224 -0.4038111
H -0.010254124 1.1164414 0.81734735
H 1.9020303 1.5459605 -0.6329848
H 0.70404446 -1.8307822 0.54159915
H -1.9735754 -1.6293366 -0.00977229
