10

O -0.62009809 -0.45514301 1.74992779
C -0.09904309 0.28495506 0.68670362
C 0.82687297 -0.47681296 -0.20037877
C 0.38123911 -0.27284386 -1.43660242
N -0.84299084 0.51165190 -1.41406530
N -1.14638784 0.77325668 -0.23508444
H 0.40777317 1.20810947 1.02032852
H 1.70143600 -1.01727720 0.13211358
H 0.76916790 -0.59249752 -2.39405402
H -1.37796940 0.03660135 2.09111180
