10

O -0.3501708 0.14512864 -1.4865397
C 0.7368425 0.46601692 -0.9128831
C -0.71858144 -0.71002436 0.017490245
O -1.6495085 -0.09081861 0.64555967
C 0.69811714 -0.14344874 0.4181733
O 0.451796 1.0159141 1.0709516
H -0.9334142 -1.7173529 -0.33547148
H 1.440545 -0.8480858 0.8087148
H -1.0718971 0.65062416 1.0938426
H 1.3962716 1.2320467 -1.3198379
