10

O -0.61211505 -0.41721540 1.09479322
C 0.38335761 -0.28897455 -0.75585904
C 0.56974984 0.32077334 0.64140944
O 0.45227135 1.67297221 0.78730149
C -0.77596318 -0.94018318 -0.19371840
O -0.95173426 0.11088424 -1.12094898
H 1.45324434 -0.00898525 1.19118891
H 1.08939503 -0.52061883 -1.54424535
H -1.30527932 -1.87393562 -0.34504613
H -0.30292639 1.94528309 0.24512493
