11

C 0.89236385 0.82764316 0.37888792
C -0.21140184 -0.22057149 0.32352552
N 0.20371509 -1.3649502 -0.44601154
C -2.3969405 0.8339257 -0.67362857
N -1.4245105 0.38297018 -0.19452608
H 0.41922134 -1.0843534 -1.3990555
H 0.5858405 1.680645 0.98995453
H 1.7915146 0.3770579 0.80694133
H -0.447237 -0.56659317 1.335009
H 1.123755 1.1895611 -0.62904054
H -0.5363207 -2.055335 -0.49205613
