11

C 1.7717416 -0.27130225 -1.0165305
C -0.08015491 0.49826688 1.1492918
N -1.017187 -0.45285088 -0.9062979
C -0.030231066 0.30597007 -0.34703737
N 1.6115447 -1.079992 -0.16156347
H 0.15694314 1.2214931 -0.8944457
H -1.1577781 -1.3520443 -0.46216863
H -0.23785281 -0.44799757 1.672226
H 0.85140127 0.94016653 1.5067551
H -0.9104067 1.1797701 1.3729976
H -0.95801985 -0.5414793 -1.9132271
