10

O 0.14176204 -0.51603163 -0.95118764
C 0.94044346 -0.74777087 1.07973751
C 0.97556182 -1.24847693 -0.18039198
N 0.06928545 0.31963876 1.10631974
O -1.71217131 1.43220178 -1.77088989
C -1.33394885 1.39183323 -0.62586667
C -0.36595657 0.40626033 -0.11164826
H 1.49487817 -2.05813532 -0.66817264
H -1.67953598 2.09013597 0.15850308
H 1.46968190 -1.06965545 1.96359670
