11

C 1.3300617 -0.7770917 -0.92892
C 0.45861945 0.6183951 -0.0335429
N 0.23915076 -0.88999164 -1.5028645
C -0.90779495 -0.22265272 -1.1500415
C 0.29476926 0.04618162 1.3559139
O 0.6732782 1.7350425 -0.35473502
H 1.2694082 0.15079972 1.842209
H -1.6531752 -0.84796894 -0.6707991
H -0.43176 0.6577514 1.9012252
H -0.001209819 -1.0034932 1.377085
H -1.2713475 0.53302807 -1.83553
