11

C -0.58664082 -0.80355674 -1.01216432
C -0.31608448 -0.69204018 0.46807768
N 1.88119868 1.79552874 -0.69795325
C 0.23620303 0.64836920 0.98110452
C 1.15800601 1.30270144 0.05303661
O -0.54561639 -1.57294422 1.25849464
H -1.15389175 0.06255520 -1.36969707
H -1.13474633 -1.72438348 -1.21770916
H 0.36117796 -0.81036303 -1.55987335
H 0.71882381 0.47815162 1.94639345
H -0.61842983 1.31598142 1.15028993
