11

C 0.6524417 -0.5553745 0.25259602
C 0.41945773 -0.5524956 -1.2381968
N -1.3123105 2.3511174 -0.007661921
C -0.37338126 0.18815179 1.1242446
C -0.9081074 1.4004446 0.5048937
O 1.5646852 -1.1354913 0.7861802
H 1.1046803 -1.2523608 -1.7190803
H 0.09139675 0.42031613 2.0853693
H -0.6175666 -0.8183752 -1.4698037
H 0.58510154 0.45444253 -1.6344665
H -1.2063975 -0.50037533 1.3159252
