11

C -0.5319981 -1.0772548 -1.4126132
C -0.016037853 -0.25038853 -0.28683406
N 1.1605797 -0.26208934 0.24802393
C 1.0910293 0.6920474 1.2545186
C -0.14384796 1.2333527 1.2670887
O -0.8725693 0.63979214 0.2790203
H -1.4228494 -1.6366435 -1.1112747
H 0.2450566 -1.7807708 -1.7164257
H -0.8028012 -0.4550358 -2.2709572
H 1.9362923 0.9121759 1.8914264
H -0.6428542 1.9848146 1.8580266
