12

C 0.7705756 0.90396255 1.0116614
C -1.260842 0.23219843 -0.29922074
N -0.5092287 -0.6472896 -1.0391743
C 0.5408463 -1.2296543 -0.45506176
O 0.7329446 -0.9382958 0.76613635
H -0.590158 -0.6754106 -2.0467541
H 0.9716948 1.4876435 0.1182065
H -0.0058898446 1.3205467 1.6431644
H -1.5943682 -0.14669321 0.6604648
H 1.2374351 -1.8111402 -1.0586166
H 1.6747943 0.6801619 1.5725706
H -1.9678046 0.82397056 -0.8733763
