12

C -0.35118765 -1.1041123 0.97976524
C -0.25980124 -0.629121 -0.46866786
N -0.26398918 0.81977254 -0.58590585
C 0.8786323 1.5509996 -0.4932155
O 1.9959525 1.08151 -0.4067193
H -0.34346223 -2.1972554 1.0270076
H -1.2720023 -0.7477953 1.4550062
H 0.50411034 -0.7250945 1.548554
H -1.0954223 -1.0169278 -1.0605385
H 0.66882443 -0.9830191 -0.9260951
H -1.1455362 1.3104931 -0.5436764
H 0.6838814 2.6405501 -0.5255146
