10

O 2.0039597 1.1491886 0.43497255
C 0.96033484 0.5986676 0.20510708
C 0.43276381 -0.8486279 0.22863415
C -0.91437083 -0.24369976 -0.23709925
N -0.26647934 1.0635804 -0.19347182
H 0.92288566 -1.516188 -0.48283166
H 0.42716908 -1.2991331 1.2232773
H -1.2344562 -0.5468936 -1.2379816
H -1.7424703 -0.35244533 0.46827704
H -0.58933616 1.9955509 -0.40888357
