10

O -1.3566004 0.9357209 -1.1164082
C -0.15819278 0.7833496 -1.1453344
C 0.5350322 -0.20661275 -0.2705423
C 0.15533164 -0.1785266 1.1743982
N -0.29150042 -1.2550615 0.32058161
H 0.48858896 1.3677913 -1.8285481
H 0.90133023 -0.44896832 1.9167386
H 1.5439997 -0.49469516 -0.55764973
H -1.2538829 -1.0846457 0.033572216
H -0.56410617 0.5816484 1.4731923
