9

O -0.9327077 -1.129657 -1.9698986
C -0.4080467 -0.62111634 -1.0172966
N -0.899051 0.32026374 -0.14132927
C 0.06501031 0.6277681 0.82042545
C 1.1299047 -0.12435555 0.52989054
O 0.8683847 -0.8926978 -0.5833209
H -1.8227255 0.70690066 -0.22967932
H -0.10301415 1.3441924 1.6087493
H 2.1022453 -0.23129818 0.9824595
