9

O 2.3162563 -0.74043185 0.13917679
C -0.19063292 -0.0987664 0.37981448
N 0.100623295 -0.9628024 -0.80379117
C 1.1438389 -0.6119862 -0.05146427
C -0.70914817 1.2771881 0.07373006
O -0.8387743 1.7149671 -1.0376594
H -0.60019565 -0.55501956 1.2817193
H -0.96705276 1.87225 0.9744496
H -0.25491464 -1.8953986 -0.9559754
