9

O -1.7706138 1.3769437 0.05038814
C -1.4790063 0.61368644 0.93976957
C 0.30233997 -0.2418204 -0.1188875
O 1.465803 -1.1768087 -0.36222667
C 0.96574116 0.17167436 -1.2150073
N -0.4174361 -0.2969695 0.9178665
H 0.7357806 -0.117159955 -2.2335587
H -2.0453608 0.5576183 1.8843063
H 2.242752 -0.88716424 0.13734962
