9

O -1.16504631 0.50254055 -2.14128511
C -0.28378795 0.34297945 0.08545118
C 1.06775407 -0.91861339 1.52799221
O 2.08568857 -0.37473890 1.84616217
C -0.58395403 1.00020944 -1.01648835
N -0.12012994 -0.24343649 1.15387973
H -1.57729254 -0.34878096 -1.94557272
H 0.90702013 -2.01102404 1.57896116
H -0.33025202 2.05086445 -1.08910013
