9

N 0.8387741 0.3573784 0.47897962
C 0.8776643 -0.55631006 -0.550312
C -0.3746981 -0.76946664 -1.1123046
C -1.1279213 0.12973823 -0.31729
N -0.35962665 0.85934174 0.6876272
H 1.8436859 -0.9891169 -0.79156107
H 1.5742307 0.60298896 1.1276547
H -2.1414728 0.49852118 -0.45178568
H -1.130636 -0.13307494 0.9289918
