14

C 2.1223137 -0.16592142 -1.1952126
N 1.1222113 -0.54265976 -0.2134163
C -0.035468142 0.2074609 -0.11784964
O -0.18853901 1.272615 -0.68929696
N -0.9996191 -0.36774626 0.68874115
C -2.1569233 0.426008 1.0636495
H 1.844355 -0.44704035 -2.218924
H 3.0706491 -0.64583236 -0.94045126
H 2.252057 0.91633105 -1.1646705
H 1.0203289 -1.536354 -0.05884868
H -0.66008735 -0.9983749 1.4020594
H -2.9280446 -0.23574612 1.4646286
H -1.9200644 1.1967448 1.8081441
H -2.5431697 0.92051536 0.17144726
