14

C -0.16628738 0.17844585 0.14473197
N 0.32858494 -0.3103044 1.3305892
C -1.069004 0.7795881 -2.0166645
O 0.18093754 -0.35255694 -0.9538571
N -1.026626 1.1476848 0.040021367
C 1.4273932 -1.2528316 1.3279073
H 1.4712163 -1.7633768 2.2933514
H -1.4626998 1.5676336 0.8554695
H -0.30323967 0.57608616 -2.7584085
H 0.25337425 0.3093247 2.1201878
H -1.8891122 0.07289384 -2.02576
H -1.3881677 1.8162861 -2.0349228
H 2.3947415 -0.7740777 1.1305383
H 1.2488889 -1.994796 0.5468165
