11

O -2.3691902 1.0121337 -0.51499104
C 0.88422716 0.34497324 -0.35563144
C -1.2972561 0.85651237 -0.106815524
N -0.09991808 1.3184875 0.19119833
C 0.29743263 -1.0424625 0.11634032
O -0.88508964 -0.6857511 0.8030138
H 0.06053014 -1.707423 -0.71827567
H 0.9860655 -1.5455886 0.8000886
H -0.37747636 0.45276946 1.1618015
H 1.8625206 0.57503814 0.06851679
H 0.9381546 0.42131063 -1.4452456
