9

N 0.74498403 1.3978862 0.24000381
C -0.8062256 0.03864268 -0.6016749
C 1.0077544 0.07376535 0.72522086
C 0.100035496 -0.78189576 0.24709779
N -0.263788 1.4001558 -0.5014108
H -0.8147422 -0.2549403 -1.6582427
H -1.8470776 0.053321682 -0.2576958
H 1.8552368 -0.08079818 1.3801459
H 0.023822717 -1.8461375 0.42655584
