9

N 0.03688485 0.52076304 1.3264483
C -0.2546069 -0.40844908 -0.7565048
C -0.46647128 -0.62339807 0.613014
C 0.38545662 0.8199463 -0.7990562
N 0.59068024 1.3271153 0.4313788
H -1.1122881 -1.3257357 1.1261894
H -0.52925897 -1.0549977 -1.5772456
H 0.6102855 -0.61844754 1.3032572
H 0.7393181 1.3632033 -1.6674811
