12

O -1.5822276 1.600227 0.7008819
C -0.1350107 -0.11590397 0.07841988
C 1.1708273 -0.78046525 -0.23043816
O -1.20247 -0.8966241 -0.24053863
C -0.2880303 1.1086147 0.5635594
O 1.326345 -1.0367458 -1.6130474
H -1.6329848 2.096217 1.5235188
H 1.2435801 -1.7159972 0.34735253
H 1.9938458 -0.12942697 0.07151008
H 0.55314595 -1.5415852 -1.8987324
H -1.9930342 -0.35377443 -0.08742411
H 0.5460131 1.765464 0.78493816
