12

O -0.6611123 1.4895762 -0.8134058
C 0.18584685 0.4164582 -1.1327156
C 0.48037875 -0.40293378 0.12312673
O 1.0365852 0.4534632 1.0849423
C -0.79112345 -1.0134866 0.6681035
O -1.1313447 -0.82669663 1.8110336
H -0.25412816 1.9198387 -0.0476111
H 1.1402028 0.7530477 -1.5617548
H -0.32790384 -0.19635029 -1.8826568
H 1.16675 -1.2290335 -0.12815861
H 0.5292731 0.29313082 1.8990945
H -1.3734245 -1.657014 -0.01999813
