9

C 0.7741044 0.11953014 -1.6559541
C 0.15273352 0.025610754 -0.33404747
C -0.34913307 -0.04239692 0.7591356
C -0.9724109 -0.15109153 2.069421
O -0.6530532 0.5178646 3.0243847
H 0.81175953 1.1604816 -1.9864702
H 0.21583745 -0.46101707 -2.3953223
H 1.7988503 -0.26238173 -1.61763
H -1.7786881 -0.90659976 2.1364827
