9

C 0.09272723 0.06013133 -0.44597417
C 0.98611367 -0.16905002 -1.3718988
C -1.1910949 0.55795246 0.115657955
C 1.4886254 -0.70527524 -0.09865206
O 2.4785502 -1.2717416 0.29732418
H -1.035934 1.3139405 0.8883266
H -1.8054265 -0.2512799 0.5186138
H 0.70772976 -0.54988015 0.8203121
H -1.7212908 1.0152028 -0.72370976
