10

C -1.2064232 -0.71010053 0.47907922
C 0.120257705 -0.05379304 -1.2739837
N -0.973467 -0.70063317 -0.8241196
C 0.9964268 0.581066 -0.43287373
N 0.7183504 0.54948467 0.88513774
C -0.3729704 -0.07925722 1.4305451
H -2.0990975 -1.2422487 0.8010539
H 0.28476438 -0.061074596 -2.3490725
H 0.64041454 0.61941606 2.0449631
H 1.8917439 1.0971404 -0.7607297
