9

N 1.02299 -0.4538114 -0.2513443
C -1.5431199 -0.26646322 0.9435072
C -0.4131763 -0.34437588 -0.3070646
C 0.4244488 0.8649906 -0.37088913
N -0.90753627 -1.2257473 1.2843671
H 0.55783534 1.3613392 -1.3283281
H 1.3513163 -0.6482524 0.6891677
H -0.8953213 -0.80436736 -1.1597332
H 0.40256327 1.5166879 0.50031745
