9

N 1.4135973 0.17332518 0.4646508
C 0.31089434 0.39139923 -0.3811553
C -0.7708041 -0.6183841 -0.383188
C 2.3354466 0.017890645 1.1751966
N -0.97734505 0.701136 0.20672187
H 0.5708723 0.9493946 -1.2763472
H -0.6409534 -1.4735895 0.27472425
H -1.3196888 -0.80950564 -1.3014123
H -0.92201924 0.66833365 1.2208091
