10

O -1.08309892 0.09159048 -1.68680032
C 0.61078234 -0.69728921 0.17669925
N -0.81609344 0.80544310 0.68393523
C -0.05675870 0.00637914 1.34235855
C -0.29334942 0.19675478 -0.60019276
N 1.10437970 0.35832198 -0.73865760
H 0.06201533 -0.04457044 2.42269322
H 1.46997312 1.17715270 -0.25537735
H -1.96411542 -0.18086671 -1.39883862
H 0.96626541 -1.71291603 0.05418011
