10

C -0.90729744 0.71462362 -1.74563499
N 0.45792987 0.51944649 -1.73058307
N -1.23476770 0.33806571 -0.48676653
C -0.07094353 -0.49245565 1.49009432
N -0.10554013 -0.02523283 0.11827463
N 0.96535374 0.06723515 -0.59831650
H -0.66385123 -1.40384335 1.56356794
H 0.96701998 -0.68115005 1.75877307
H 1.09836317 0.68451225 -2.49419491
H -0.50626692 0.27879851 2.12478635
