12

O -0.38771057 -2.336318 0.8003066
C 0.6591744 1.8176897 -0.35170352
C -1.0718899 -1.1310675 0.58888805
N 1.0503216 -0.32283518 -0.3724246
N 1.6398002 0.82618666 -0.65465736
C -0.15404625 -0.026315955 0.15512857
N -0.45163876 1.2701387 0.16914603
H 0.89457405 1.4954373 -1.5427748
H -1.5528072 -0.8370817 1.5263305
H -1.8671016 -1.2308819 -0.16635814
H 0.32064632 -2.3957105 0.14162126
H 0.9206778 2.8707583 -0.29350275
