11

C 0.3095179 0.30236146 1.8047595
C 1.4896002 0.8973623 1.0918096
N -0.6802621 0.017081909 1.0425293
C -0.29809442 0.39312926 -0.27659225
C -0.30990532 -0.7573368 -1.2628132
O 1.0650711 0.91402423 -0.1489709
H 0.27881423 0.12198373 2.876724
H 0.32727182 -1.5664134 -0.89579153
H -1.3287159 -1.1334938 -1.3770448
H -0.91335815 1.2337016 -0.61958605
H 0.060060658 -0.42240068 -2.2350235
