11

C -1.329414 -0.8715199 -0.214389
C -0.021206433 -1.0047145 0.60394686
N -1.5081394 0.39728427 -0.29986474
C -0.37152332 0.7244682 0.52605486
C 1.1597948 0.14606659 -0.4116844
O -0.3250705 -0.08324924 1.6310388
H -0.03761555 1.7435967 0.6918819
H 1.3374312 -0.70152366 -1.0772744
H 2.010227 0.2827936 0.25830516
H 1.0439093 1.0157646 -1.0716233
H -1.9583929 -1.6489666 -0.63639146
