11

C -0.98983675 0.8925259 -0.11691356
C 0.058020886 -0.19476017 -0.17272839
C 0.6749541 -0.7397938 1.0458074
O -0.31361303 -1.4651908 0.33634716
C 0.8385857 -0.24544103 -1.4085599
N 1.4495454 -0.24803115 -2.3900294
H -1.7202474 0.76197904 -0.92058665
H -1.5125982 0.8469221 0.8422591
H -0.52842677 1.8786601 -0.22517483
H 1.6814023 -1.1546645 1.0048519
H 0.3622136 -0.33220565 2.0047274
