11

C 0.66726980 -0.26147930 0.93144443
N 0.48305918 -0.35510004 -1.63396298
C -0.07690569 -0.68240744 -0.34959681
C -0.63052936 0.33356892 0.55182202
N -1.51751034 1.21429598 0.67053272
H 1.56250190 0.34977009 0.82295950
H 0.91613352 0.56354535 -1.60102833
H 0.71910378 -0.98630358 1.74094629
H -0.26852561 -0.29102040 -2.31611232
H -0.50387818 -1.68289210 -0.31270931
H -1.35071905 1.79802299 1.49570489
