11

C 0.51043123 -0.53705215 0.9122741
N -1.8358713 0.66399926 0.6447076
C -0.78140765 0.0107311765 0.4501443
C 0.13495702 -0.48835963 -0.5806065
N 0.857035 0.38795337 -1.4643294
H 1.2646865 0.16246311 1.2709002
H 0.25728473 0.6359812 -2.2473335
H 1.0773184 1.2581906 -0.98818886
H -1.957834 0.8816742 1.6382912
H 0.54980266 -1.5152361 1.3865697
H -0.076402575 -1.460345 -1.0224292
