11

N 1.0705737 -1.2245394 0.0664199
C -0.63093656 -0.00067878515 -1.380923
C -0.6950116 0.963401 -0.43616742
C -0.078973204 0.76269907 0.8613223
C 0.23825198 -1.1739131 -1.0941279
N -0.30652216 1.4255347 1.9112047
O 0.89619714 -0.27845344 0.9336988
H -0.38650757 -2.0789614 -1.0540442
H 0.89905626 -1.36981 -1.9516076
H -1.2566243 1.8839562 -0.55398184
H 0.25049648 1.0907654 2.6982062
