11

N 0.96804094 0.4655734 -2.1420395
C 0.57916844 0.24334998 -0.95766914
C -0.7986827 -0.11845282 -0.6447997
C -1.1516327 -0.34280634 0.6271762
C -0.12587921 -0.21032116 1.6425221
N 1.0962176 0.10398377 1.4192828
O 1.4616591 0.33714488 0.102482565
H 1.959647 0.7024875 -2.1652496
H -1.4766858 -0.18756832 -1.4861063
H -2.1616163 -0.6148364 0.91441315
H -0.3502366 -0.37855455 2.6899867
