11

N -1.1976714 -1.4348214 -1.4953592
C -0.34568205 0.73104733 1.3028822
C 1.0917006 0.7365312 0.9412406
C -1.106436 0.08185954 0.37217686
C -0.53203857 -0.6861576 -0.72220755
N 1.6750079 0.112296075 -0.116200574
O 0.84851706 -0.53083134 -0.95110846
H 1.8313943 1.0397424 1.6795279
H -0.6048414 -1.870425 -2.2046292
H 0.52844054 1.7899886 0.75765306
H -2.1883912 0.03077025 0.4360244
