12

N -0.12848307 -0.8862621 2.1823394
C -0.3707672 0.36970153 -1.1008528
O -0.0024019834 1.1937938 1.2600647
N -0.23912492 -0.66767675 -0.09869706
C 0.7504148 0.24171482 -1.937152
C -0.11624455 -0.040096354 1.1013871
H 1.7187067 0.08078365 -1.4684879
H -0.18961945 1.3058122 -0.42656356
H 0.70684266 0.22731343 -3.022402
H -0.30127934 -0.46147454 3.0781934
H -0.48177359 -1.8158628 2.02059
H -1.3462702 0.45225316 -1.5884186
