12

N -0.2121356 -0.54673976 0.78698146
C 0.046931367 0.7095041 0.6839999
O 0.0047102775 1.4641747 -0.4269955
N 0.42086247 1.4414804 1.7712185
C -0.48460886 -1.2878554 -0.35700843
C 0.23097089 -1.3507675 -1.4950911
H 0.28276065 2.439007 1.7121155
H -1.3608328 -1.931139 -0.2566841
H -0.23563921 0.88652134 -1.1702232
H -0.068659216 -2.0322049 -2.2838078
H 0.21774526 1.0068964 2.6573675
H 1.1578948 -0.7988781 -1.6218725
