11

O -1.8737144 -0.086423144 -0.10311535
C -0.6241262 0.49806306 0.08248075
C 0.27199787 0.07581467 1.2637546
O 1.3711458 -0.18153396 0.34184065
C 0.5401262 -0.0011121081 -0.74279445
N 0.698747 -0.26725566 -1.9579904
H -1.7492949 -0.9459283 -0.52286863
H -0.7469688 1.5840534 0.024384554
H 0.5429519 0.8395465 1.9944535
H -0.051617183 -0.84850043 1.7520859
H 1.6207529 -0.66672397 -2.1322312
