11

N 1.4591953 -1.2338109 -0.7740721
C -1.914925 1.2475026 0.748351
C 0.6359584 -0.2521208 -0.21024647
N 0.40240526 0.93166 -0.77160925
C -0.09714075 -0.37579474 1.0230418
N -1.2148684 0.27962872 1.0986086
N -0.11509688 1.9401476 -0.9436238
H 0.2735735 -0.92392033 1.8807393
H 2.42219 -0.9517307 -0.900224
H -2.9471366 0.99320763 0.470314
H 1.0958455 -1.6547694 -1.6212791
