9

O -0.25242406 -1.20750036 1.74839000
C -0.18722279 0.13294852 1.32191243
C 0.12056450 0.27595168 -0.10808628
C 0.34209490 0.33729483 -1.28614914
C 0.79523541 0.45916102 -3.74349831
N 0.58514929 0.40491343 -2.58289477
H -0.88937056 -1.67722217 1.19714475
H 0.60541410 0.59640203 1.91624943
H -1.11944073 0.67805113 1.53693205
