9

O 1.3876885 -0.3503327 1.4955097
C -0.5707223 -0.21835196 -1.3519922
C 0.037776638 -0.047563624 1.2476898
C -0.9222919 -0.4267336 -2.7894878
C -0.3210136 -0.14349681 -0.17314395
N -0.7539058 0.76029944 -2.8075485
H 1.9324069 0.23657593 0.9573194
H -0.5529541 -0.76880175 1.8183669
H -0.23698446 0.9584051 1.6032864
