10

N 0.23982953 0.8293226 -0.41140443
C -0.015488408 -0.46488613 -0.26642653
O -0.36690128 -1.0680343 0.84383446
C 0.11953399 1.5802151 0.7037512
O -0.20212783 1.1946013 1.8437055
N 0.09286285 -1.2699449 -1.3317087
H -0.39901254 -0.3391119 1.5378153
H -0.1301508 -2.2478907 -1.2519717
H 0.33469817 2.6478431 0.55130535
H 0.3267563 -0.862114 -2.2189007
