10

O 1.41391796 -1.00321888 -1.27115856
C -0.08498130 0.91443859 0.12648723
N -1.41376496 0.99145193 -0.39161247
C 0.92903724 -1.28612017 -0.20241542
C -2.51074036 1.03088666 -0.80509005
N 0.24183801 -0.40533685 0.59336355
H 0.61803595 1.16774648 -0.67034976
H 0.00482556 1.63469257 0.94181911
H 1.01810838 -2.28700015 0.25802304
H -0.21627605 -0.75754049 1.42093326
