10

O 1.6663043 -0.13119447 -1.4458345
C 1.1612122 0.78884625 -0.8445439
N 0.2772229 0.64722484 0.18883815
C -0.21441866 -0.65718496 0.57589257
C -1.6493715 -0.814568 0.2844615
N -2.7785656 -0.91838586 0.0768545
H 1.3823377 1.8490547 -1.0629374
H -0.15000041 1.4717994 0.5823723
H 0.3567662 -1.3930055 0.0030053144
H -0.051486693 -0.8425867 1.6418914
