13

N -1.5968267 0.6363217 -0.3617034
C -0.15799658 0.7918497 -0.5976246
C 0.51808846 -0.49942884 -0.21998738
N 3.0892553 -0.66998667 -0.35818958
C 1.9319177 -0.5737758 -0.29184005
N 0.060649052 -0.91832334 1.229956
H 0.1109533 1.0401633 -1.6349884
H -2.0760522 1.5238905 -0.47439584
H 0.7531035 -0.82052696 1.9704136
H 0.1827213 1.6252168 0.038538877
H 0.002356435 -1.6576759 0.35852036
H -1.9761726 -0.0044293227 -1.0551211
H -0.841997 -0.4732954 1.3964217
