13

N 2.8524551 -1.0604875 1.0141112
C 0.03486845 0.97591996 0.24064304
C 1.7487704 -0.7555476 0.7854949
N -1.4115367 1.0158402 -0.05162991
C 0.39202517 -0.4523196 0.5402579
N -0.101617336 -1.2455565 -0.63880676
H 0.4937052 -1.2370934 -1.4753896
H -1.9138724 0.8401837 0.8129489
H -0.27120522 -2.2163954 -0.3912822
H 0.33630544 1.6067553 1.0877249
H 0.53923273 1.3872811 -0.6615527
H -1.0044895 -0.781619 -0.85674185
H -1.6946416 1.923039 -0.40577784
