13

N 0.62608979 -0.76346147 -0.99747148
C 0.65551216 -0.23055247 0.40902897
C -0.55851784 0.64602293 0.53127850
N -1.72719019 -0.16258736 0.13195495
C 1.91586255 0.34729102 0.67447166
N 2.98172075 0.76732726 0.90005874
H -0.38532882 -0.94535151 -1.14532363
H 1.14184932 -1.63532631 -1.07747417
H -0.55006686 1.52579213 -0.14952484
H 0.96707017 -0.13166064 -1.73157739
H -2.56259681 0.40647253 0.04921780
H -1.88785782 -0.86226642 0.84981845
H -0.61654649 1.03830082 1.55554209
