13

N -0.60438585 -0.8647072 -1.4375201
C 0.43939227 -0.04344417 -0.8395907
C -0.0811173 0.5502633 0.47903097
N -0.52624285 -0.52999264 1.3492296
C 0.98688066 1.322468 1.136254
N 1.8209505 1.9443715 1.6395985
H -0.5170702 -0.88020885 -2.4485655
H -0.5160579 -1.8253884 -1.1274976
H 0.68708575 0.7815702 -1.5162529
H 1.3635724 -0.6008679 -0.6280041
H -0.88690424 1.2588925 0.23510319
H -1.3419169 -0.9456518 0.9105828
H -0.82418644 -0.16730402 2.2476315
