10

C 0.38702938 2.052543 1.5009769
C 0.18059029 1.0918771 0.8058943
C -0.05812356 -0.043152787 -0.01942928
C -1.2070105 -0.71961373 -0.3743212
N -0.87197775 -1.7401744 -1.2006917
N 0.41324854 -1.7388208 -1.3801297
N 0.9149165 -0.72611487 -0.6770546
H 0.5623576 2.9058685 2.1195216
H -2.2296636 -0.52891034 -0.086116165
H 1.908633 -0.5535014 -0.6886501
