11

C 0.053391796 -0.15004145 -0.97979766
C 0.6735394 0.04316137 1.4541352
C -1.1373909 -0.08703525 -1.8823357
O 0.7290971 -1.2647053 -0.94875294
C -0.28910246 0.28148133 0.38220227
N -2.05094 -0.050026678 -2.587664
H 0.64090896 0.8041729 -1.2827348
H 0.62435544 0.81495875 2.227474
H 1.6703571 -0.14287844 1.0460862
H -1.2826828 0.6557835 0.64718705
H 0.36846608 -0.9048707 1.9241999
