11

N 0.119250715 -0.27915388 -0.44283345
C 1.275657 0.43433538 -0.16721232
O -0.9758495 0.5846502 1.3363504
N -2.1333532 -0.88688684 0.055443484
C -1.060009 -0.24934211 0.27757862
N 2.285812 0.28976226 -0.9204408
H 0.16349845 -0.88337445 -1.2499771
H 1.1902752 1.0768284 0.7106282
H -1.8475655 0.53341347 1.7570682
H 3.0538661 0.8689378 -0.5948302
H -2.0715823 -1.4891702 -0.76177484
