10

O -1.9284593 1.1400665 -0.058456276
C 0.08356485 -0.08823406 -0.48220888
C -0.06391586 -1.0017548 0.7243842
O 0.91777205 -1.393269 1.311088
C -0.7356805 1.1736052 -0.22178853
O 1.4199599 0.20585476 -0.7244793
H 1.9309644 -0.27715218 -0.05241184
H -0.1368727 2.1047695 -0.18440756
H -1.0955873 -1.2598958 1.0223242
H -0.39174572 -0.60399044 -1.334044
