10

O 1.2568334 -1.3837733 0.9880492
C 0.35983455 -0.9480103 0.014149226
C -0.019835677 0.49773085 0.22196482
O 0.41968083 1.1489137 1.1465255
C -0.98220056 1.1493795 -0.7587067
O -1.4551227 0.55365866 -1.6909704
H 1.4049479 -0.63737994 1.5862601
H 0.7826143 -1.0475411 -0.99689233
H -0.5659072 -1.545045 0.019373246
H -1.200845 2.212067 -0.52975273
