10

O 0.36691141 -1.53848914 1.41452567
C 0.02663831 -1.19934155 0.30528764
C 0.40924948 0.17455047 -0.22212773
O 1.11466493 0.89652886 0.73300115
C -0.87120048 0.89208180 -0.64262353
O -1.58884944 0.46501197 -1.51044544
H 1.19997595 0.31324416 1.50669163
H 0.99745102 0.01198457 -1.14144222
H -0.57434223 -1.83487353 -0.36900642
H -1.08049909 1.81930245 -0.07386082
