10

O 1.2852885 -0.33240458 -1.7453426
C -1.2273439 0.45905155 0.44137123
N 0.66060203 -0.76569104 0.5126211
C -0.4549324 -0.44249108 1.1764582
C 0.56754845 -0.055459864 -0.6319084
N -0.6231002 0.7012474 -0.7465583
H -2.1219852 0.99232495 0.72825015
H 0.57346344 1.1994286 -0.43614602
H -0.6550954 -0.8281588 2.168915
H 1.9955546 -0.9278472 -1.4676603
