10

O -0.41018244 -0.64277637 -1.89242837
C 0.34527953 -0.34996398 -0.76578587
N -0.15593162 -1.01177850 0.44108886
C -0.28782567 -0.07426168 1.29500450
C 0.03791025 1.24317225 0.67761002
N 0.36203013 1.09175400 -0.54882351
H 1.39959657 -0.65944015 -0.87190458
H -0.66998636 -1.56922486 -1.81950572
H -0.61832806 -0.23937882 2.31650607
H -0.00256215 2.21189769 1.16823834
