13

C 0.29935652 1.2083082 -1.0778925
N -0.75075763 -1.1227609 1.4620777
C 0.54934883 -0.06104369 -0.2795228
O 0.1827247 -1.2356471 -0.99216723
C -0.11602043 0.019316291 1.0995911
O -0.05948906 1.026068 1.7819053
H -0.63034356 -1.949468 0.898013
H -0.7685348 1.3157074 -1.3087978
H -0.6874583 -1.0833669 -1.3844346
H 0.60469514 2.0803425 -0.49657834
H -1.1032169 -1.2012436 2.4036107
H 0.85712004 1.1723756 -2.0180054
H 1.6225752 -0.16858804 -0.08779886
