13

C 0.58283484 -1.5844573 -1.1646467
N 0.23116776 -0.64229035 -0.1263582
C -0.052041102 0.66030556 -0.3790292
O -0.07361245 1.1709691 -1.485521
C -0.33622488 1.4785658 0.876616
O -0.5609549 0.6903381 2.033551
H -0.11432536 -2.427322 -1.1804475
H 0.53106666 -1.058481 -2.118707
H 1.59979 -1.964794 -1.0228416
H 0.27083057 -0.91579944 0.8439786
H -1.1678795 2.1575418 0.6521707
H 0.5475477 2.092009 1.082392
H -1.4581993 0.34341466 1.9888428
