9

O -0.10598607 -2.3938408 -1.5109259
C 0.030959113 1.3183042 0.9762558
C -0.048754193 -0.4770206 -0.097271025
N -0.20549834 1.0695975 2.159235
C 0.061754026 -1.2087079 -1.4343078
N 0.175997 0.9020893 -0.2361134
O -0.30357918 -1.0350415 0.9487186
H 0.3005933 -0.5505921 -2.291559
H 0.0945144 2.375212 1.4859676
