9

O -2.5752249 0.6733103 0.29156366
C -1.6301963 0.095684856 0.7617269
C -0.30082783 0.043215808 0.0945268
N 0.7632203 -0.5508013 0.54306924
C 1.6596 -0.2786651 -0.45470497
N 1.1827971 0.42647278 -1.4367601
O -0.12890215 0.6477209 -1.0762863
H -1.6585208 -0.44332543 1.723562
H 2.6880548 -0.61361283 -0.44669738
