12

N 0.4280941 -0.0044033006 -1.4655302
C -0.96609265 0.47689852 0.48063755
C 1.429227 -0.12503123 0.7627021
C 0.44216606 0.5383413 -0.124078155
N 2.226424 -0.6598977 1.4013327
C -1.7517147 -1.9925188 0.5930628
N -1.4230543 -0.8693045 0.57637006
H 0.18361263 -0.99041194 -1.4452311
H -1.6424605 1.032649 -0.17377338
H 0.71319497 1.5969893 -0.18282454
H -0.97793573 0.9237618 1.477782
H 1.3385392 0.072927535 -1.9004501
