9

N -1.24706503 0.93577528 0.81000487
C -0.92592875 2.08591435 0.36795271
O 0.66737376 -1.04213344 -1.66408016
C -1.33118429 1.35969070 -1.17039278
C -0.71167280 0.42909490 -0.45459445
C 0.37229530 -0.59778730 -0.57712712
N 0.93698534 -0.93196605 0.60500357
H 0.57564406 -0.60615179 1.48689756
H 1.66355226 -1.63243645 0.59633549
