10

O -0.26621746 -1.94547681 0.85451196
C -0.12641215 -0.75961343 0.26401251
N 0.40699629 0.28532890 1.06316588
C 0.51615744 1.43520911 0.40076538
C -0.02036006 1.00184600 -0.94965472
N -0.40005016 -0.41626081 -0.92028158
H 0.66908583 0.15164721 2.02984920
H -0.88319823 1.62210000 -1.21804917
H 0.73771157 1.17870452 -1.72020214
H -0.63371305 -2.55348491 0.19588295
