10

O 1.4614305 1.6329232 0.73704135
C 0.24951482 -0.6167833 0.9596633
N -0.66273725 -0.1759397 -1.0405014
C -0.58926195 -1.0832005 -0.024296144
C 0.63728607 0.6779285 0.4995933
N 0.0002922719 0.94876754 -0.64578974
H -1.1254755 -2.020171 -0.09160608
H 0.5797764 -1.1314702 1.848883
H -1.4200702 -0.10606491 -1.6986791
H 0.869245 1.8740104 -0.5443084
