10

O 2.362832 -0.39657387 0.27431297
C 1.1725926 -0.19527711 0.13511877
N 0.33248326 0.57291275 0.92331785
C -0.97480726 0.5514545 0.43525535
C -0.9777995 -0.22362179 -0.6620946
N 0.3282775 -0.6796018 -0.84968257
H 0.6605915 1.0583476 1.7400017
H -1.7758833 1.0906342 0.91391164
H -1.7821894 -0.49336222 -1.3275265
H 0.65390265 -1.2849123 -1.5826145
