11

N -0.6984559 0.40334624 1.9845817
C 0.019444652 -0.26449507 1.0159727
O 0.7385306 -1.214073 1.2450861
N -0.12827618 0.28041384 -0.25335222
C 0.52518094 -0.23038706 -1.3653673
N 0.4061418 0.35428247 -2.4862406
H -0.7269927 -0.083832055 2.8678122
H -1.551056 0.87502813 1.72377
H -0.6184918 1.152488 -0.39531347
H 1.0969348 -1.1322272 -1.1406698
H 0.9370399 -0.14054431 -3.1962788
