11

N 2.2359009 0.7988753 0.9637351
C 1.3866879 0.044992387 0.4013143
O -0.6702898 -1.4585367 -0.8004785
N 0.07860183 0.48829648 0.22706121
C -0.8865989 -0.2668675 -0.35961553
N -2.1423945 -0.00051033875 -0.59517014
H -1.908664 -1.2349296 -1.0568888
H 1.5399233 -0.96137595 0.010023095
H 3.1337624 0.32449323 1.0105836
H -0.13943167 1.4126549 0.5692857
H -2.6274972 0.85290784 -0.36985013
