11

C 0.37992867 1.79161470 -0.36227557
C 0.60837283 0.48379455 -0.95817933
C 0.09050843 -0.73881886 -0.31945583
O 1.46689609 -0.39503680 -0.24744408
C -0.69249893 -0.72560967 0.96414069
N 0.18114966 2.83643647 0.08778071
H 0.75661465 0.50863868 -2.03638400
H -0.46393092 0.16390916 1.55649304
H -1.76579674 -0.74100149 0.74911588
H -0.45059263 -1.61017126 1.55993304
H -0.11065093 -1.57375522 -0.99372439
