11

C -0.09166736 -0.26396528 -0.49541482
C 0.18638463 -1.473231 1.6236637
C -0.06471265 -0.15104102 0.97563374
O 0.694536 0.84060156 1.3420225
C -0.03261807 0.9649264 -1.2789656
N 0.3959466 -2.4899592 2.1274915
H -0.56802404 0.8729656 -2.2284684
H -0.026309317 -1.2288108 -1.0058501
H -0.31885388 1.8211925 -0.659142
H 1.0296043 1.1280715 -1.521511
H -1.2042863 -0.020750478 1.1205403
