10

O -0.081301205 -1.2356212 0.11757673
C 1.226767 -0.38510492 -0.027793974
C -0.44072866 0.2812333 1.053542
C -0.58519477 0.8608655 -0.35902667
O -1.0060034 1.9272513 -0.70523983
C 0.07360973 -0.31630075 -0.9832909
H -0.014269268 -0.73243564 -1.9801478
H -1.3439755 -0.16856375 1.4781895
H 0.14864568 0.82392985 1.7863458
H 2.0224507 -1.0552539 -0.38015473
