9

N -0.11863368 -0.84750986 0.45106873
C 0.3585186 0.37703997 0.85941744
C 0.27514368 1.1768557 -0.24656679
N -0.23634899 0.4808612 -1.3127551
C -0.4612089 -0.72770756 -0.86017543
H -0.20142327 -1.6763341 1.015325
H 0.69938344 0.55089927 1.8681954
H 0.55278945 2.2179027 -0.34370226
H -0.8682203 -1.5520077 -1.430807
