10

O -0.61998802 -1.01372595 0.30456043
C 0.76835406 -0.92740293 -0.11959256
C -0.77471985 0.34509564 0.18894305
C 0.64439519 0.59657228 -0.25504314
N -1.77274490 1.07128794 0.39238288
H -2.57297727 0.51321867 0.68985604
H 0.92162846 -1.48374988 -1.04692356
H 1.23602261 1.18995774 0.44554639
H 1.43529729 -1.29151019 0.66483449
H 0.73473226 1.00025661 -1.26456462
