10

O -0.29740483 -1.1137313 0.4194466
C -0.008088483 0.1552874 0.8548694
C -0.12549259 -0.7149196 -0.96844625
C 0.21225515 0.7160897 -0.5275926
N 0.039376568 0.6281748 2.0119872
H 1.234732 1.0484315 -0.7200634
H 0.6827363 -1.281449 -1.4359114
H -1.058058 -0.8420812 -1.5226208
H -0.49922845 1.49084 -0.8170896
H -0.18082765 -0.086642325 2.7054207
