10

O -0.15326965 2.1006005 0.7431481
C -0.09854716 0.9342435 0.23521966
C -0.49200892 -0.039170697 -0.8600443
C 0.2986852 -1.0359719 0.03666814
N 0.5797235 0.096860856 0.9641969
H 0.58713645 1.2887244 1.5941086
H 1.2000527 -1.4595585 -0.41540685
H -1.5648319 -0.2236961 -0.9492489
H -0.05322332 0.16626953 -1.8385171
H -0.30371705 -1.8283019 0.48987573
