12

O -0.34960416 1.8620775 -1.1271416
N 0.2647166 1.378689 0.061675943
C -0.4790809 -0.8571407 -0.72829765
C 0.52133006 0.03786949 -0.113333315
N -0.7660647 -0.7369378 0.74132174
C 0.6834998 -0.74014467 1.1206306
H 0.9241475 -0.18815917 2.027266
H -1.2171637 -0.39065748 -1.3728575
H -0.75883263 0.59814286 0.7100715
H 0.20450242 2.6198437 -1.3409154
H 1.1482099 -1.7247187 1.058336
H -0.17566039 -1.8588638 -1.0367565
