12

O 0.7479869 -2.009596 0.87086254
N -0.21017712 -1.418387 -0.0023049612
C 0.00515644 -0.020760054 -0.01593881
C 0.73429483 0.9007207 -0.90913546
N -0.74104327 0.89690757 -0.8767435
C -0.8695837 1.0028793 0.58597463
H 0.20245363 -2.3760989 1.5758507
H 0.002862106 -1.796405 -0.926471
H 1.2721708 1.7549707 -0.49192712
H 1.133906 0.50980276 -1.8430349
H -0.42602834 1.8643515 1.0929279
H -1.8519981 0.6916146 0.93994004
