12

O 1.36127451 -1.78011145 0.57835714
N -1.14636554 0.68833652 -0.57819235
C 0.20478480 0.94855006 -1.11145397
C -0.79752160 0.87391660 0.83996311
N 0.07338181 -1.42977589 0.07973380
C 0.00337587 -0.02061437 -0.01659115
H 0.67909038 1.91138481 -0.90872290
H -0.38178223 1.83368438 1.15915569
H 1.16173837 -2.18551677 1.42969202
H 0.03357078 -1.82934631 -0.85894865
H -1.52804002 0.42114740 1.50978263
H 0.33649282 0.56834505 -2.12277550
