11

N 0.55223036 1.3752549 0.13127036
C 0.3277473 -0.08438534 0.018013673
C 1.4303256 0.28403187 0.8357668
O -1.4672368 -2.0284283 -1.674437
C -0.8454922 -1.244624 -1.0407159
O 0.37332603 -0.66597044 -1.2920184
N -1.0262048 -0.58841956 0.18698193
H -0.21090224 1.8905661 0.5639612
H 1.0039644 1.8659545 -0.63012505
H -1.3215764 -1.112054 0.9995896
H 1.1838187 0.30807412 1.9017123
