11

C 1.2239037 -0.15109214 -0.55887973
N -0.21465881 0.95191425 0.64624786
C 0.61513984 0.8472484 -1.312099
N 0.70691246 -0.06953932 0.6823628
C -1.0447638 -0.6974052 1.0100526
N -0.2949401 1.4796665 -0.56280196
H -1.9057753 -0.38976622 0.42116988
H 1.9838223 -0.87306386 -0.8196882
H 0.8062528 1.1509404 -2.3330414
H -1.1631411 -0.5473751 2.076035
H -0.7127523 -1.7015276 0.75064206
