11

N 0.29369867 0.30503199 1.9985172
C 0.11362263 0.10325843 0.7619694
C -0.63542974 0.8437044 -0.34155262
N -0.42856115 0.08336004 -1.5751063
C 0.29292524 -0.9151952 -1.2462893
N 0.6461079 -0.99037737 0.089078635
H -0.1691623 1.1587372 2.3015127
H -1.7066247 0.9110114 -0.118302554
H -0.26200143 1.8668858 -0.4604533
H 0.63064194 -1.6805998 -1.9387444
H 1.224783 -1.685817 0.5293702
