11

C -1.38489288 0.39411349 -0.08779049
N -0.00727939 -0.04012101 -0.02134960
C 0.60931843 -1.18048309 -0.36358385
N 1.89626644 -1.14914771 -0.12056117
C 2.21123682 0.10407362 0.43617132
N 1.01989425 0.73290475 0.47337782
H 0.82080300 1.66240709 0.80793010
H -1.47214693 1.29202237 -0.70662044
H -1.77132961 0.59691950 0.91536069
H -1.97470547 -0.40606345 -0.54058564
H 0.05283527 -2.00662560 -0.79234864
