11

C 1.6499416 -0.68564 -1.1819967
N -0.08639978 0.021295363 -0.021251641
C 1.025577 0.6665858 0.3760253
N 2.097571 0.23389818 -0.23627037
C -1.4669311 0.18962711 0.37882048
N 0.26638383 -0.80422604 -1.0492977
H 0.957781 -1.7684549 -0.8406858
H -2.0520308 0.57947403 -0.4569782
H -1.504647 0.88917106 1.2170867
H -1.8733304 -0.7747421 0.69281673
H 0.98608446 1.4530114 1.1217312
