11

N -0.66027302 0.69394656 -1.67770015
C -0.59673249 0.38547489 -0.35751800
C 0.34464674 0.32202976 0.75346527
N 1.26893607 -0.87140874 0.74314339
N 1.30693584 -1.70975739 -0.12802954
C -1.12569101 0.11679853 0.80673525
H -1.49550302 0.37850605 -2.15137317
H 0.18485823 0.47950034 -2.18834864
H 0.85847862 1.18886095 1.18005474
H 1.88514173 -0.88567612 1.58635300
H -1.97079762 -0.09827490 1.43321788
