12

N -0.43660283 -1.6665268 2.3250074
C -0.3466638 -0.7698786 1.6038834
C -0.25329718 0.3629656 0.66185623
C 1.1514696 0.4826164 -0.007737675
N 1.0073652 -0.08041328 -1.3496032
C -0.23827094 -0.2447907 -1.5346736
N -1.0988016 0.15092567 -0.51148945
H -0.536724 1.2754536 1.1949694
H 1.45052 1.5322667 -0.08214914
H 1.924539 -0.05033971 0.5514782
H -0.6641404 -0.6282513 -2.4601028
H -1.959393 -0.36402753 -0.39143896
