12

N 0.67702262 0.53063051 2.45504913
C -1.47903485 -0.50792251 -0.13514317
C 0.95470804 0.46016806 1.33743939
C 1.30952964 0.37999776 -0.08482591
N -1.01531470 -1.68772736 -0.17594169
C 0.19483330 0.86168518 -1.00134243
N -1.01352883 0.49200214 -1.00843225
H -2.31895965 -0.16270584 0.47495786
H 2.20791097 0.97932824 -0.25794773
H 1.53980976 -0.66300940 -0.31949244
H 0.48160577 1.61121110 -1.73943182
H -1.53858204 -2.29365784 0.45511086
