12

N 0.8918706 -0.7808358 0.9916517
C 0.82086384 0.5487357 0.7084785
C -0.1272858 1.1894559 -0.17755541
C -1.5222898 0.9008221 -0.22660668
N -0.2360722 -1.1186883 -1.046663
C 0.4219627 -1.5493946 -0.013596446
N -2.6730719 0.7675419 -0.24825485
H -0.28656524 -1.8070084 -1.7843825
H 0.69763607 -2.6023526 0.09769239
H 1.7597365 1.1006854 0.8274159
H 0.11993487 1.1746745 1.4287943
H 0.13328032 2.1763642 -0.5569739
