10

O 0.990707 0.5079386 -1.7951765
C 0.3832742 0.1828979 -0.6565561
C 1.1492196 -0.27807638 0.43560192
N 0.5667899 -0.6029718 1.5676255
N -0.7605364 -0.4931649 1.6794256
C -1.4292839 -0.05646701 0.62687135
N -0.9222286 0.29666415 -0.56444544
H 0.301302 0.799125 -2.4156902
H 2.2270222 -0.3799994 0.37994543
H -2.506266 0.024053764 0.7423987
