10

O 0.65217364 1.4060799 -1.0032222
C 0.5984625 0.14496136 1.1442255
C 0.20977098 0.41711497 -0.182056
N -0.71421146 -1.5266911 0.5836193
N 0.03727406 -0.989841 1.5557925
C -0.6603591 -0.7277336 -0.4908774
H -1.1367159 -0.9527471 -1.4369218
H 0.857766 1.0355233 -1.8716097
H 1.2421402 0.74150604 1.7758955
H -1.086301 0.45182708 -0.07484541
