10

O -0.37859702 1.6392125 -1.2169845
C -0.17058504 0.605951 -0.35668358
C 0.5145626 -0.57499146 -0.5359498
N 0.40946063 -1.2361207 0.6521397
N -0.2869844 -0.5683057 1.5694966
C -0.64947426 0.55857676 0.9723493
H -0.036797438 1.4011822 -2.0860183
H 1.0514438 -0.9826857 -1.379621
H 0.78460145 -2.1401415 0.88230175
H -1.2376304 1.2973223 1.4989699
