10

O 0.01899191 1.59752843 0.61060583
C -0.61895330 -0.19257541 -1.00318603
C 0.34570008 0.36504187 0.01788016
N -1.00381624 -1.37280709 -0.71886259
N -0.42670064 -1.75447434 0.55674680
C 0.28387527 -0.78645766 0.98367381
H -0.93905756 0.30401090 -1.91449710
H 1.35654880 0.37697645 -0.43266988
H 0.80789489 -0.83760725 1.93229085
H 0.17551671 2.30036379 -0.03198179
