11

C -1.1448061 -0.31216916 0.70535374
N -0.05837763 0.658857 0.6393374
C 1.1024595 0.184885 -0.08208274
C 0.8323258 -0.1712389 -1.4975989
N 0.55809784 -0.4215196 -2.5911918
H -1.5115407 -0.642227 -0.2787209
H -1.9769194 0.12888837 1.2614874
H -0.80277777 -1.192973 1.2596436
H -0.38654944 1.51988 0.21900006
H 1.8848388 0.94951016 -0.059897114
H 1.5032492 -0.7018929 0.42466938
