11

C -1.67251878 0.04219603 -0.88651115
N 0.21082802 0.59135370 0.44451905
C -1.25181990 0.24208962 0.43723563
C 1.18186087 -0.45144061 -0.01417246
N -1.99617169 -0.05412569 -2.00711150
H 0.90538307 -0.73365825 -1.03238957
H 1.07722007 -1.31422153 0.64570008
H -1.42936950 -0.56666787 1.13607190
H 0.32056972 1.42369374 -0.13553868
H 2.20565639 -0.06703938 0.02257907
H 0.44836183 0.88782021 1.38961775
