12

N -0.2921876 -0.8348266 1.7682436
C 0.09925846 0.29277307 1.0858892
O 0.8506057 1.1325043 1.5321317
N -0.49529764 0.3723094 -0.18473952
C 0.26880795 0.9374499 -1.271476
C -0.070095696 -0.51178455 -1.2568601
H -1.1421688 -1.2921336 1.4778725
H -0.10169285 -0.82026285 2.758774
H -0.27715078 1.6123118 -1.9247471
H 1.2951075 1.2197953 -1.0527632
H -0.86818486 -0.8961601 -1.8898984
H 0.7329985 -1.2119758 -1.0424272
