10

N 0.90498143 -0.9670666 1.0421833
C -0.23737025 1.5938299 -1.0481205
O 0.24364947 2.5414608 -1.5887626
N -1.237114 -0.69294953 0.019258581
C -0.031419415 -0.37411502 0.23446015
O 0.5510733 0.7221402 -0.35527283
H -1.3012502 1.3217044 -1.0332456
H -1.5091093 -1.517359 0.5442286
H 0.7514681 -1.9295642 1.2937807
H 1.8650907 -0.6980807 0.8914901
