10

N 1.48052 0.5017154 0.92026323
C 0.22275384 0.6236009 0.37850243
O -0.4500505 1.6287191 0.44783086
N -0.23109332 -0.5468753 -0.23367684
C -1.4582949 -0.6416211 -0.8704655
O -1.8556765 -1.6720226 -1.3573087
H 1.8839318 1.3759693 1.2244384
H 2.1269798 -0.16759805 0.5314066
H 0.28859225 -1.4101694 -0.1628874
H -2.0076625 0.30828142 -0.87810296
