9

N 0.47842864 0.49179293 -0.72963342
C -1.43274668 -0.33665853 0.25157228
C 0.84165948 -0.00710387 0.48669270
C -0.27760096 -0.47718203 1.11752091
N -0.87296562 0.18685354 -0.84200612
H -1.36321450 0.54012182 -1.64952806
H 1.05909279 0.43640379 -1.55522234
H 1.87784617 0.04472218 0.79882001
H -0.31049946 -0.87894977 2.12178375
