9

N -0.7735639 0.24428372 -0.8766937
C 0.572846 0.3092362 -0.76077604
C 0.869976 -0.11168486 0.51611435
C -0.38728064 -0.40835404 1.0857081
N -1.3795216 -0.19018859 0.23588002
H -1.3385557 0.479307 -1.6761044
H 1.1980784 0.64185166 -1.5763927
H 1.8451427 -0.19259623 0.9714695
H -0.6071214 -0.7718548 2.0807946
