11

C 0.25682856 -1.15830486 -0.15306158
C -1.02817939 -0.38328395 -0.23012424
C 0.28382915 0.33137850 -0.01925996
O 0.86750786 1.01282462 -1.08184378
C 0.53752714 0.91267946 1.29287505
N 0.72496063 1.40418987 2.32229798
H 0.67587279 -1.53858918 -1.07717942
H -1.72242187 -0.44749052 0.60053176
H 0.45158776 -1.75625360 0.73201911
H 0.43075074 1.86985585 -1.17709453
H -1.47826341 -0.24700605 -1.20916041
