11

C -1.4541798 0.33350748 0.26981577
C 0.83346045 0.022291072 0.0785852
C 1.8979446 -0.9384992 -0.0009434573
O 1.0492471 1.0129211 0.9042282
C -0.4530251 -0.1661359 -0.6610072
N 2.7219064 -1.7407353 -0.13971575
H -1.7527051 -0.3033874 1.0988109
H -0.5192025 -1.245012 -0.88681257
H 0.15546876 1.4642507 0.9258442
H -0.40194032 0.37321028 -1.6189585
H -2.0769746 1.1875893 0.030152986
