11

C -0.4362311 -1.3803194 -0.56921846
C -0.5147904 0.014269484 0.037709154
C 0.84087515 0.64469147 0.22690901
O 1.8949534 0.14040822 -0.05431824
C 0.8113709 2.0110629 0.8172974
N 0.77831334 3.0713115 1.2743231
H 0.051560234 -1.3580741 -1.5465448
H -1.4430189 -1.7884892 -0.69270486
H 0.13493654 -2.056325 0.07297373
H -1.0096165 0.004715767 1.0190442
H -1.1083527 0.6967485 -0.58547026
