10

N 0.27319542 1.0802693 -0.48225775
C 0.78132385 1.3422515 0.62869555
C 0.5356632 -0.87812227 0.916259
O 0.963893 0.2262995 1.4977044
C 0.081288785 -0.38801205 -0.4584319
N -1.2499464 -0.742164 -0.8803691
H 0.803143 -0.8137037 -1.1758089
H -1.9312512 -0.36330393 -0.23219687
H -1.3540908 -1.7529701 -0.858322
H 1.096781 2.2894557 1.0447278
