10

N 0.6835435 -1.4119544 0.8715205
C 0.17091295 -0.41072685 0.036202382
C -0.8710541 1.3779923 -0.3729715
O 0.08038726 1.2736968 -1.3363297
C 0.8634396 0.15591002 -1.0979573
N -0.8959361 0.44091183 0.48772094
H -0.16264673 -0.90489686 -1.0111814
H 0.054231342 -1.5858799 1.6458725
H -1.5277822 2.2367365 -0.43602327
H 1.6049044 -1.1717894 1.2131468
