10

N -0.32021805 0.21504943 -1.15126203
C 0.83985772 0.65703271 -1.29240521
C -0.27557355 -0.52350339 0.13162244
O 1.74494478 0.35241749 -0.23321507
C 1.13309844 -0.35219639 0.69972132
N -1.38032561 -0.15408061 0.97937913
H 1.26794508 1.24844174 -2.09038290
H -1.31700717 0.82801991 1.22291102
H -0.36451610 -1.59478085 -0.11610822
H -1.32820550 -0.67640016 1.84973934
