12

N 1.04975857 -0.51842779 0.19223131
C 0.22440737 0.38074279 1.05254395
C 1.58451974 0.37968061 -0.79968494
N 0.84953634 1.38315364 -1.05688445
C -0.26463074 1.14293187 -0.15705056
N -1.51846797 -1.23533325 0.02978064
C -0.46406122 -0.34541826 0.05340884
H -1.60739287 -1.72325828 -0.85386178
H 0.20954101 0.43313373 2.13338270
H 2.53759628 0.15742539 -1.26802038
H -1.09677032 1.83761869 -0.12632610
H -1.50403616 -1.89224921 0.80048107
