11

N -0.412 -0.55292434 -1.463307
C 0.19611898 -1.2954842 -0.64054877
O 0.77214545 -0.81702 0.47183847
C 0.69660443 0.59423673 0.62991035
C -0.7314825 1.0816423 0.8008612
O -1.0308642 2.2429686 0.70852786
H -0.7856841 -1.0996919 -2.2327144
H 0.34472346 -2.3765836 -0.6923235
H 1.157627 1.1210163 -0.21041036
H 1.254198 0.8074084 1.5463816
H -1.4613862 0.29443154 1.0817847
