11

N 1.2703356 1.0563895 -0.46476355
C -1.1315993 -0.83396554 -0.8167534
O -1.7791061 0.14415132 -1.0767665
C -0.20908324 -0.9679801 0.3764248
C 0.62618774 1.1941359 0.6130587
O -0.12971318 0.2169164 1.1384747
H 0.5996408 2.0618443 1.2745565
H -0.61307687 -1.7326959 1.0474786
H 1.7731135 1.9090687 -0.6816013
H 0.7783427 -1.2906047 0.025379336
H -1.1850418 -1.7572597 -1.4354879
