17

C -1.6976954 -0.6760369 -0.17579792
N 0.30698085 1.192743 -0.6543195
C 0.575 0.22820434 0.29670876
O 1.6250857 0.23205927 0.92704177
N -0.4234431 -0.69274247 0.5108955
C -0.12736501 -1.845946 1.3371547
C 1.3784403 2.087447 -1.051969
H -0.104110606 -2.7677727 0.7391463
H 0.95832396 2.9094312 -1.6338577
H 2.1578238 1.583889 -1.6395876
H -1.6684202 -1.2094686 -1.1381425
H -0.322487 0.9298554 -1.397854
H -0.8848283 -1.9611232 2.1209228
H 0.8501387 -1.6935202 1.7944486
H 1.8494533 2.4941392 -0.15443201
H -2.443266 -1.1650681 0.45877793
H -2.0296314 0.3539095 -0.3391362
