17

C 1.2505502 0.77446806 1.5296685
N 0.8229342 0.65362453 0.15957819
C -1.9916487 -1.6958268 0.10378187
O -0.38953063 -0.0797872 -1.4945205
N -0.8342789 -0.9664628 0.5698519
C 1.0753565 1.2433839 -1.8091156
C -0.14480871 -0.12358677 -0.25004372
H 0.4177193 1.0291398 2.2048144
H 1.9833498 1.5871727 1.6076046
H -2.1848688 -2.530851 0.78015196
H -1.774095 -2.0871513 -0.89119184
H 1.7350485 -0.13717361 1.9131259
H -0.7841905 -0.76454246 1.5525459
H 1.3905009 2.1687615 -1.3351629
H -2.8920448 -1.0725027 0.03753461
H 0.42279324 1.4286747 -2.6577466
H 1.897213 0.5726597 -2.0208766
