9

N -1.1948792 0.57451993 -1.1369615
C 0.9751981 -0.6445472 1.3517871
N -0.23961361 -0.3065494 0.7601437
C -0.12607324 0.18421829 -0.42927054
O 1.0802903 -1.1069329 2.4605024
H 0.83579487 0.31585157 -0.9406455
H -2.1125398 0.4777177 -0.73408556
H -1.1026046 0.9679844 -2.0584354
H 1.8844271 -0.46226248 0.7269654
