9

N -0.80618584 1.8446479 -0.12839209
C -0.10827293 0.81185657 -0.35136193
N -0.2366761 -0.3091599 0.45578414
C 0.47891998 -1.4729474 0.30120072
O 0.36184388 -2.4403765 1.0104187
H -0.5972141 2.572816 -0.8023849
H 0.629793 0.6840412 -1.150625
H -0.9035508 -0.26229867 1.2169169
H 1.1813428 -1.428579 -0.55155617
