12

N 0.5276704 0.9406409 -0.80620784
C 0.05303552 -0.4884159 -0.93646246
N -0.3169763 1.0923347 0.44801036
C -1.4188898 -0.49301285 -0.7353798
C 0.71669084 0.051000923 0.27551746
C -1.5937381 0.50382155 0.12733166
N 1.9073695 -0.18917018 0.94302493
H 2.3884432 0.6721803 1.1742487
H 0.5907845 -1.1051548 -1.6513073
H -2.1425304 -1.1444019 -1.2050412
H 1.7709028 -0.7489012 1.7771466
H -2.482762 0.90907806 0.5891189
