12

N 0.76702144 0.52020704 -0.97687009
C 0.70490233 -0.18921465 0.24385908
N 1.77245914 -0.76511916 0.91439656
C -0.22365379 -0.61216021 -0.83280465
C -1.56183565 -0.01118702 -0.59802808
C -1.26456165 1.09802433 0.07264335
N 0.16389777 1.18551577 0.24914315
H -0.02897077 -1.49442529 -1.43633662
H 2.56336309 -0.13434719 0.97286580
H 1.51256608 -1.08766827 1.83965252
H -2.51876528 -0.39475931 -0.92314840
H -1.88642260 1.88513384 0.47462765
