11

N -0.15280609 1.1099912 -1.4032075
C 0.82269084 0.550962 -0.6593203
O -1.2699955 -0.43335944 0.99147856
C 0.65245914 0.2247568 0.7506828
C 0.012623624 -1.1084346 0.9210634
O 1.954891 0.26507458 -1.0408609
H -1.3080505 0.005417802 1.8547167
H 0.09479818 1.442178 -2.3260314
H -0.021715902 -1.7807451 0.061013773
H -1.0268341 1.3825011 -0.9873443
H 0.24193935 -1.6583425 1.8378094
