11

C -0.41106036 0.91652334 -1.1516045
C -0.07409296 -0.33313516 -0.377256
O -0.054620873 -1.4372251 -0.88049614
C 0.27852538 -0.1847043 1.0925735
O 0.6527292 -1.4034847 1.6522355
H 0.5165961 1.3380738 -1.5566268
H -0.8718849 1.6813254 -0.5175633
H -1.0691388 0.6762097 -1.990204
H -0.5992604 0.2419176 1.6056212
H 1.085202 0.5596561 1.1831949
H 0.54700565 -2.0551567 0.9401259
