11

C -0.06039907 -0.78836006 -0.71296453
C 0.005881791 0.28453237 0.072467096
O 0.13893108 -0.6049903 -2.0801382
C -0.28657797 0.29583433 1.5369568
O 0.3370498 1.5048108 -0.4280367
H 0.47816464 1.3794029 -1.3805428
H -0.5180809 -0.710913 1.8922557
H 0.8212543 -1.2181522 -2.3768039
H -1.1403791 0.9488017 1.7482114
H 0.57328886 0.6828277 2.0940473
H -0.34913352 -1.7737943 -0.36545208
