11

C 0.26961678 0.106652975 -0.24262601
C 1.3909527 0.44460428 0.70138997
O -1.8282306 -0.74609625 -0.9837993
C -0.9974699 -0.27771 0.28808552
O 0.4050313 0.20465153 -1.4773043
H 1.0871395 0.3749861 1.7477516
H -1.1042867 -1.0131769 1.0770233
H 1.7447865 1.4581904 0.4897474
H 2.2243207 -0.2405491 0.5171116
H -2.0720816 0.17149577 -0.4549692
H -1.1197789 -0.48304906 -1.6624104
