11

C 1.1093557 -0.83777004 -1.2967374
N -0.66020024 0.11270897 1.5315343
C 0.1349236 -0.6337815 0.9087297
N -0.40214723 0.86711454 -0.69785666
C -1.0583779 1.1369333 0.55934054
N 0.31697795 -0.1971181 -0.47153035
H -2.15233 1.119587 0.46645695
H 1.2012401 -0.4663848 -2.3068757
H 0.65750974 -1.5089494 1.2787635
H -0.7813609 2.1192722 0.96372604
H 1.6344093 -1.7116122 -0.9355508
