11

C 1.16207549 0.61804143 -1.37173680
N 0.29666484 0.25934941 -0.45431187
C 0.55544867 -0.85900933 0.44637741
N -0.39325626 -1.03826257 1.24961010
C -1.37168875 0.00382282 0.91874826
N -0.86573718 0.78557040 -0.18436977
H 0.91226758 1.45332812 -2.00942111
H -1.53533496 0.61698780 1.81457435
H 2.08643305 0.06283585 -1.45568337
H 1.47963891 -1.42096472 0.36879725
H -2.32651139 -0.48169937 0.67741576
