10

C -1.08251 0.24461472 -0.25158757
C -0.31660673 -0.5961257 -1.0507541
N 0.9514376 -0.8890125 -0.76632386
C 1.4444889 -0.32624853 0.33627152
N 0.81010306 0.49096772 1.1747292
C -0.45668396 0.7710169 0.8700724
H -2.11408 0.47710264 -0.49111646
H -0.73130476 -1.0506299 -1.9488281
H 2.4794393 -0.5603483 0.5788631
H -0.98428315 1.4386626 1.548674
