11

O -0.19147198 1.16742599 1.12639712
C -0.64007205 1.12825988 -0.19759152
C 0.86853438 0.47131207 0.45616580
C 0.53785766 1.21733892 -0.86708784
N -1.63357586 0.15859139 -0.42926456
C -0.99965335 -0.92011235 -0.08969305
N 0.34095557 -0.91269487 0.25393651
H 1.83492009 0.46869312 0.96508714
H 0.66320537 0.80903311 -1.86646518
H 0.71142666 -1.69770694 0.76822428
H -1.49212636 -1.89014044 -0.11970869
