11

O -1.6476663 -0.5063637 0.23435047
C 0.15922894 1.3827543 -0.06180649
C 0.004355567 -0.9961176 -0.42451286
C -0.7149031 -0.1478269 1.0585754
N -0.3288206 1.208672 1.1222202
C 0.24926335 -1.1437439 1.0080767
N 0.27956212 0.31855977 -0.951792
H 0.16361439 0.49290007 -1.9377172
H 0.5427132 2.3477383 -0.3785383
H 0.09395937 -1.7735542 -1.1877944
H 1.1986932 -1.1830186 1.5189385
