11

O 0.16359787 1.579519 0.38297638
C 0.9958336 0.3972187 -1.1719979
C -0.17831588 0.9925878 -0.839451
C -1.2544135 -0.5187239 0.106445625
N -0.026784232 -0.70597965 0.71737134
C 0.94664973 0.3777593 0.38174134
N -1.4351273 0.3590887 -0.8303339
H 1.811017 0.37020105 1.0493649
H -2.058509 -1.1872135 0.40800357
H 1.0340505 -0.48165643 -1.8101975
H 0.0020012788 -1.1828011 1.6060768
