10

O 1.252352 -1.3852915 0.99075204
C 0.3574874 -0.9501948 0.016354164
C -0.017355539 0.4985349 0.21954416
O 0.42027843 1.1503574 1.142668
C -0.97698957 1.1519414 -0.7612905
O -1.4466716 0.55744714 -1.6931864
H 1.40014 -0.63836247 1.5886993
H 0.78065485 -1.0561378 -0.9943552
H -0.57033575 -1.5432565 0.02310058
H -1.1995602 2.214962 -0.53228617
