10

O -0.2760638 -1.0379937 0.5358717
C 0.8777081 -0.6030279 -0.14517301
C 0.7142071 0.9033126 -0.23586872
O -0.5665904 1.1761695 0.10820428
C -1.2513258 -0.048493452 0.3326963
O 1.512098 1.7325004 -0.55186063
H 0.95580983 -1.0281851 -1.1554621
H -1.8634378 0.042908028 1.2307551
H -1.870957 -0.26560187 -0.5480424
H 1.768552 -0.87158865 0.42887965
