11

C -0.65490717 -0.17446242 -1.1161648
C -1.8771036 -0.39133108 -1.4528244
C 1.5330597 0.24239416 -0.042601973
C 0.048265137 0.045614436 0.024181144
O -2.9080048 -0.599229 -1.9769449
N -0.51062393 0.13086571 1.2599013
H 1.8159907 1.2016 0.40714225
H 1.867161 0.21804602 -1.0803853
H -1.4489303 -0.21937051 1.3892584
H 2.0479512 -0.5523755 0.51208484
H 0.08714156 0.09824813 2.0763533
