11

C 1.7793328 0.23513496 0.19005209
C 0.04436941 -0.46860734 -0.2834492
C 1.2649438 -0.9338302 -0.54191214
C -1.3908522 -0.73677504 -0.49461514
O 2.8026948 0.7344934 0.53403884
N 0.38466105 0.9095003 0.5717807
H -1.451332 -1.6727856 -1.0610744
H 0.17563747 0.9296783 1.5684906
H -1.8824301 0.0529984 -1.0735481
H -1.9349326 -0.86534053 0.448286
H 0.20790762 1.8155332 0.1419506
