11

C 2.19257787 -0.93595914 0.32239576
C 1.13142526 -0.57457164 -0.30807234
C -0.06838290 -0.01149468 -0.01365987
C -1.05106881 0.26463814 -1.11178382
O 3.23757265 -1.33022185 0.68739433
N -0.47259417 0.30765537 1.24387167
H -0.65434070 -0.08544727 -2.06533390
H -2.00573652 -0.23581463 -0.91040790
H -1.24679700 1.34198059 -1.18576535
H -1.28538835 0.89856300 1.36705915
H 0.22273222 0.36067206 1.97430165
