11

O 1.2364453 -2.2677395 1.0542291
C -1.2240574 -0.4906337 -0.08241535
C 1.5986031 0.07300021 0.23222682
C 1.343087 -1.1790724 0.6580151
N -0.6288058 0.7774886 -0.4002029
C 0.6463821 1.0076549 -0.2704006
N -2.4818618 -0.42671743 -0.1789728
H -1.2503875 1.4975805 -0.7517931
H -2.8854136 -1.3348101 0.035760757
H 2.6466806 0.35321686 0.27101782
H 0.999328 1.9900316 -0.567465
