11

O -0.25706296 1.66906985 2.22057712
C 0.29421011 1.42851098 1.22469386
C 0.83794166 0.22344126 -0.86845991
C 1.00334834 1.26481138 0.09129394
N -0.03263278 -0.74110818 -0.78085941
C -0.91576364 -0.88880177 0.34240105
N -1.73970400 -1.82426867 0.13867453
H 1.47872091 0.22659686 -1.74440171
H 1.78190437 2.00608039 -0.05991227
H -0.10372509 -1.44057010 -1.51175661
H -2.34723670 -1.92376175 0.94774931
