11

O -1.51558 -1.4286534 -1.7622206
C -0.94668543 0.65191567 0.8884897
C -0.9159576 -0.67619693 -1.0239313
C 1.1963928 -0.019035958 0.05105761
N 0.39764318 0.5275153 1.1054307
C 0.5822641 -0.55901337 -0.9953229
N -1.5654156 0.22623599 -0.15462753
H 0.825643 1.0083897 1.8754054
H 1.143996 -1.0209348 -1.8030256
H 2.271212 0.049923137 0.17929925
H -1.4735122 1.2398547 1.6394451
