11

O 1.4985927 0.0082373535 -0.4978975
C 0.86751914 0.028847136 0.6149015
C -0.28519237 1.0626502 0.71696746
O -1.1039541 0.6353815 -0.37117034
C -0.5547493 -0.48922184 -0.7986748
N -0.78272706 -1.17849 -1.7815499
H 0.06202766 2.0738635 0.49815282
H -0.16630326 -1.9251417 -2.0568101
H 1.3725249 -0.2337116 1.5612317
H -0.045705736 -1.0002185 0.4693627
H -0.86203253 1.0178043 1.6454865
