11

O -1.1359968 0.05759532 -0.43331307
C 0.7977602 -1.2923706 0.18835747
C 0.012862147 -0.6228911 -0.92524034
O 1.9209869 -1.6946067 0.030734748
C -0.8798233 1.0986277 0.3740423
N 0.29364944 1.424916 0.70984834
H 0.6712822 0.05151424 -1.4784869
H -0.37875676 -1.3923987 -1.5976994
H 0.2335806 -1.430342 1.1345586
H -1.8199807 1.5715636 0.66808045
H 0.28443626 2.2283926 1.3291181
