10

N 0.97346824 1.4209028 0.5547631
C 0.25828704 0.3182868 0.10079979
N 0.2449397 -0.026427837 -1.1825624
N -0.47260532 -1.1425792 -1.1871723
N -0.9372953 -1.5493535 -0.028871542
C -0.48438868 -0.63548195 0.8265717
H 0.5039801 1.9500613 1.2755244
H 1.2560656 2.0230036 -0.205927
H -0.6471747 -1.6541752 -2.0368755
H -0.69527656 -0.70423687 1.88375
