10

C 0.7744381 0.6490675 0.2422404
C -0.56655955 0.89340526 -0.097528994
N 1.2890105 -0.48035094 1.0336182
C -1.3020111 -0.3116264 -0.035806507
N -0.55742764 -1.3699298 0.1007233
C 0.8120641 -0.9577248 -0.09918807
H -0.9546638 1.877342 -0.3269999
H 1.5276903 1.4291106 0.12591769
H -2.3862302 -0.38370624 0.01876547
H 1.3636893 -1.345587 -0.9617417
