17

C -1.42013908 -0.88554054 2.18117006
N -0.13136382 -0.68959761 -1.18588517
C -0.39164641 -0.41513570 0.13702580
O 0.00918508 0.75461185 0.68845035
N -1.05958826 -1.25143702 0.83101516
C 0.57363045 1.83733909 -0.02818157
C 1.10723922 -0.47521708 -1.91754783
H -1.96299433 -1.72364341 2.62446999
H -2.07420303 -0.00208797 2.21774439
H -0.02392852 2.08706522 -0.91352214
H -0.53209450 -1.60143857 -1.36795394
H 2.00118010 -0.81199623 -1.37566083
H -0.54544596 -0.67390952 2.81287733
H 0.56122896 2.67791887 0.66643929
H 1.23039261 0.57413829 -2.19381952
H 1.61276068 1.63635575 -0.32093220
H 1.04578762 -1.03742539 -2.85568959
