17

C -0.017401163 -1.9691658 -1.4420599
N -0.34199384 1.303047 0.4175653
C -0.15360992 0.11075589 -0.22397399
O -0.639352 -0.07891708 -1.385002
N 0.49023375 -0.90177745 0.2767309
C 0.9659385 -0.96910965 1.6355947
C -0.87537336 2.4492886 -0.28567547
H -0.14087562 2.9191022 -0.95278066
H -0.8425319 -1.9940153 -2.1506333
H 1.8763565 -0.37177312 1.8030368
H 0.95442206 -1.8408418 -1.9023017
H 1.2236649 -2.0099225 1.8688307
H -1.2171935 3.1889255 0.44117674
H -0.061694212 -2.800792 -0.7454705
H 0.20544213 -0.65007305 2.3645654
H -1.7257296 2.1261082 -0.8900469
H 0.29969752 1.48916 1.1704437
