11

C 1.3348876 0.69542146 -1.045829
C -1.0636894 -1.2539244 0.27400464
C -0.0041988534 1.1612599 0.8952023
N 0.5310637 1.532515 -0.36562943
C -0.43206322 -0.022579756 0.6821827
O 1.4415531 -0.5231751 -0.94258124
H 1.936886 1.2521553 -1.7844727
H -0.04120339 1.8519855 1.7287481
H -1.5004771 -1.7185079 1.1671093
H -0.3284159 -1.9242346 -0.17422229
H -1.8743428 -1.0509151 -0.43451223
