11

C -0.88139576 -0.80010533 -1.1902449
C -0.12728623 -0.061397463 -0.14263421
C -0.26072922 1.1348114 0.46821374
N 0.762911 1.3032829 1.3965992
C 1.4471112 0.218794 1.2980951
O 0.98338497 -0.663352 0.39332488
H -1.2577053 -1.7541971 -0.80848444
H -1.7342097 -0.19871265 -1.5151883
H -0.25329062 -1.0075336 -2.061114
H -1.0146872 1.8937386 0.31569394
H 2.335897 -0.065328635 1.8457392
