11

C -0.98302569 -0.75948936 -1.14527145
C -0.44491588 0.31351632 -0.29982198
C -0.11910743 1.48902741 0.08972378
N 0.04125961 0.41114283 1.10408230
C 1.32164776 -0.14438630 1.32262056
O 1.73718078 -1.12804727 0.76424050
H -0.19257246 -1.49094219 -1.33617023
H -1.80175717 -1.26421263 -0.62244292
H -1.34952364 -0.35635910 -2.09065636
H -0.07970881 2.56268169 0.07870339
H 1.87052306 0.36706872 2.13499262
