12

C 1.05908851 0.03109268 0.36178490
C -0.16947464 -0.49537938 -0.34219833
C -1.43137328 -0.12380326 0.44028091
O -0.24758502 -0.01118433 -1.65463645
N 1.81087917 0.85721256 -0.24584386
H 1.22126250 -0.32947920 1.38516326
H 2.60069890 1.14995212 0.32538490
H -1.42087123 -0.55431837 1.44634324
H -0.08745127 -1.59302897 -0.37678381
H 0.49337607 0.60194314 -1.77184891
H -2.31253692 -0.49758076 -0.08891568
H -1.51601307 0.96457370 0.52126991
