12

C -0.4448363 -0.43881005 0.02807981
C -0.97992295 0.7015789 0.8975199
C 1.0592571 -0.35288024 -0.08350758
O -1.0485973 -0.41468185 -1.2360129
N 1.5846797 -0.20992589 -1.2325816
H -0.33884597 -0.28867227 -1.8833629
H 2.5999196 -0.15519121 -1.1866903
H -0.68739295 -1.3961931 0.515258
H -0.7183324 1.6671032 0.45297438
H 1.6174276 -0.40472615 0.8595584
H -2.0700572 0.6354747 0.9562189
H -0.5732989 0.656924 1.9125459
