10

O 1.317708 1.1927246 -0.92849874
C 0.67936975 -1.0398979 0.09609551
C 0.53372496 0.384569 -0.15954259
C -0.6779305 -1.3079724 0.4817166
N -0.84767944 0.7182543 -0.13202034
N -1.5387973 -0.29617646 0.3368491
H 0.85668015 0.34350985 0.95477706
H -1.0696689 -2.251892 0.84159064
H -1.2805395 1.6254066 -0.22104938
H 2.0271325 0.63147444 -1.2699177
