10

O -0.7967769 -1.7325543 -0.74775887
C -0.30041876 -0.5853605 -0.23637058
C 0.863735 0.12649612 -0.42297477
C 0.7124218 1.2353486 0.44561672
N -0.43204632 1.2124299 1.1054888
N -1.0390701 0.08211402 0.6690661
H -0.15788667 -2.0976906 -1.3717866
H 1.6876303 -0.11481119 -1.0777286
H 1.4063141 2.048436 0.6091373
H -1.9439025 -0.1744081 1.0273104
