10

O -1.6549927 0.7307219 0.800667
C -0.38603652 0.59553826 0.26717064
C -0.20193377 0.4127899 -1.1944724
C 0.81897604 -0.5432547 -1.20038
N 1.1550277 -1.0505947 0.015504687
N 0.39706793 -0.50615907 0.89359957
H 0.23632364 1.4821228 0.5019016
H -2.2766232 0.49246675 0.10006704
H 1.3287371 -0.9617918 -2.0606759
H 0.5834538 -0.6518395 1.8766179
