10

O -1.75511078 0.11039252 0.90632369
C -0.06676427 1.11809423 -0.61914856
C 0.96893560 0.34933862 -1.16012324
C -0.42866382 0.28650452 0.55608692
N 0.29859001 -0.99821405 0.35607977
N 1.16839937 -0.86162724 -0.57490869
H 0.36918175 -1.77606967 0.99814283
H 1.58740844 0.58302857 -2.01920357
H 0.14083246 0.74572685 1.38870434
H -2.28280880 0.44282561 0.16804641
