12

O 2.5534017 0.46777788 -0.6719539
N -1.5111741 -0.029429497 -0.17988265
C -0.28192356 0.044024486 -1.0426198
C 0.56954473 -0.075976685 0.07333087
N 1.7926722 0.034195878 0.44324416
C -0.5993061 -0.43428323 0.96290946
H 3.4413698 0.5061688 -0.3103199
H -1.9934033 0.8521879 0.024317475
H -2.2141957 -0.72689766 -0.42906967
H -0.7639781 0.18238083 1.8512982
H -0.7262934 -1.4927589 1.1993929
H -0.2667137 0.67261004 -1.920647
