12

C -0.048418432 0.26978114 -0.7365171
C -1.3514243 0.37200782 1.1661229
O -0.9052792 -0.8887815 1.0242791
N 0.9633378 0.84346056 -1.3802109
C 0.22631492 -0.82092327 0.19404566
N 1.3117251 -1.4666449 0.23711464
H 1.9146583 0.61771816 -1.115715
H -0.7311578 1.0920523 1.6980451
H -2.4315171 0.43131745 1.3229293
H -1.0477622 0.37858763 -1.1360486
H 1.2752967 -2.1752493 0.9707809
H 0.82422596 1.3466737 -2.2448258
