13

C 0.5853469 -1.5821017 -1.1659117
N 0.23328422 -0.6413616 -0.12551287
C -0.05334889 0.66015494 -0.37858316
O -0.0777163 1.167473 -1.4859138
C -0.33801994 1.476097 0.8785412
O -0.56407815 0.6947527 2.0384793
H -0.11178049 -2.4262433 -1.1821654
H 0.5357881 -1.0557089 -2.1206512
H 1.6024165 -1.9624474 -1.0223936
H 0.27247274 -0.9122319 0.8462228
H -1.1714118 2.15266 0.65331626
H 0.5444864 2.092439 1.0836583
H -1.4574394 0.33651826 1.9809135
