11

N -0.9800783 -1.7038349 0.5951579
C -0.3474486 -0.537106 0.15409191
C 0.9663704 -0.16137786 0.2683562
N 1.0416453 1.0506669 -0.4012306
C -0.19305561 1.3244274 -0.8751197
N -1.0594381 0.39278945 -0.55524886
H -1.9831339 -1.6037978 0.51556253
H -0.72844404 -1.9711429 1.5370274
H 1.8284354 -0.6219704 0.7240078
H 1.8665621 1.6143512 -0.5163471
H -0.41141447 2.2169948 -1.4462575
