11

C 2.24418937 -1.35278730 0.02209171
N 1.29615725 -0.91877545 0.55511972
C 0.10333382 -0.28895979 1.08311742
C -0.71386969 0.37740897 -1.10052798
N -0.39996780 0.77389113 0.26819852
H 0.24485030 1.55429372 0.27832313
H 0.15354089 -0.00461214 -1.65496392
H 0.33865090 0.08884019 2.08109550
H -1.12305533 1.24067755 -1.63040906
H -1.48153039 -0.40312259 -1.07898033
H -0.66229857 -1.06685393 1.17693538
