11

N -1.32563278 -0.16795637 0.36374152
C 0.89323176 0.48896620 0.34051182
C -1.30326780 0.68751574 -0.64275492
C 0.17286386 0.39956704 -1.03450661
C 0.03275082 -0.78708764 0.45327742
O 0.26946914 -1.05751852 -0.91846484
H 0.67388722 1.32315395 1.00941392
H 0.57997189 0.79684104 -1.96049302
H 1.96038238 0.27951548 0.26293381
H -2.10440217 -0.33922802 0.98343293
H 0.15074594 -1.62376888 1.14290752
