11

N -1.3621075 -0.5064565 -0.98313683
C -1.1239338 -1.3175051 -0.0862421
C 0.008122543 1.0186477 -0.1802207
C 1.0371643 -0.080181025 -0.09328805
C -0.031405527 -0.63436514 0.879932
O -0.47935826 0.68923235 1.0661507
H 1.3234159 -0.6578253 -0.97278774
H 0.18383282 -1.1652222 1.8053707
H 0.07262718 2.0755398 -0.4292003
H -1.5362375 0.33545518 -1.4923183
H 1.9078797 0.24268 0.4857405
