9

O 1.87151973 -0.64100283 -1.41684786
C 0.98279678 -0.41118474 -0.63274238
N -0.24608033 0.19161807 -0.95444512
N 0.96230099 -0.68023076 0.76084813
C -0.12728431 -0.14739828 1.18827128
N -0.86439788 0.54262390 0.25032390
H -0.23646202 0.91145836 -1.66407891
H -0.47290468 -0.18561959 2.21600911
H -1.86948848 0.41973582 0.25266193
