9

O -2.0708895 0.48880693 0.8141996
C 0.53979176 -0.73853105 -0.8709735
N 0.034418292 0.73137 0.65411186
N 1.0795879 0.014717489 0.11941834
C -1.0504305 0.16795214 0.11189194
N -0.7749076 -0.70922834 -0.9066861
H 2.0112069 0.39735347 0.13843179
H -0.93462217 0.9715374 1.4726573
H 1.1658452 -1.3239781 -1.5330511
