9

O 1.3338557 -2.00348 0.35752708
C 0.7066627 -0.97375214 0.29624313
N -0.39009687 -0.74211866 -0.55256027
N -0.6441803 0.6334469 -0.53671515
C 0.09451515 1.0715581 0.5410603
N 0.91778225 0.21781333 1.0382004
H -0.36438954 -1.1689821 -1.468513
H -0.027048742 2.0907876 0.8925611
H -1.6271002 0.8747269 -0.5678037
