11

N 1.0602614 0.27078742 -0.27017733
C -0.9722949 -0.011611142 0.31413677
O 0.44791967 -0.3412485 1.7501056
C -1.1120129 -0.102192886 -1.1734065
C 1.3702456 -0.063457064 0.94871247
O -1.5286676 -1.0883211 -1.734027
H -1.4445133 -0.84404904 0.8225723
H -0.84065133 0.82588875 -1.7153482
H 1.7761061 0.47759977 -0.9614583
H -1.168607 0.97306246 0.72622216
H 2.4122143 -0.09645887 1.2926681
