10

O 0.4787627 0.9529744 2.1124656
C -0.6057997 -1.074038 -0.40149057
C 0.494761 0.89173156 -0.3435157
O -0.31297565 0.07097514 -1.1558529
C 0.1805883 0.44527674 1.0732279
O -0.5278391 -0.70277864 0.9701838
H 1.5675629 0.7604816 -0.54388994
H 0.11666915 -1.8815002 -0.5839456
H 0.22901218 1.9413136 -0.49809054
H -1.6207417 -1.404436 -0.62909216
