11

N -1.1971405 0.20229812 0.6419609
C -1.1439831 -1.0387298 0.2031967
C -0.05110051 1.058474 0.38678944
C 0.1947181 -1.1050321 -0.5370973
C 0.8705879 0.24644041 -0.38245493
O 1.1362776 0.5843017 0.9852848
H 0.7978653 -1.9235154 -0.13101235
H -0.20019314 2.1323016 0.3444003
H 0.0027422006 -1.3477606 -1.5903931
H -1.9809971 0.5392445 1.185288
H 1.5712234 0.6519773 -1.1059624
