10

O 1.28568681 -1.17916041 0.92196301
C -0.94696348 1.22748610 -0.04827259
C 0.26249892 1.07223346 0.64113614
C 0.71915665 -0.22630598 0.09079717
N -0.45021190 -0.75518865 -0.66306671
N -1.33456425 0.16421807 -0.80197458
H 1.16399553 -0.84796375 1.82264351
H -0.49137624 -1.58119008 -1.24487967
H 1.42462360 0.06059121 -0.71515100
H -1.63284580 2.06527995 -0.00319542
