10

O 0.6463127 -1.8926575 -0.102734014
C -0.43516657 1.4061921 -0.48589936
C 0.3791091 -0.5580582 -0.021940181
C 0.43421766 0.4354233 -1.0799341
N -1.0444809 1.0307584 0.64341414
N -0.6341105 -0.18686597 0.9016587
H 1.3027924 0.07449929 0.27902564
H -0.6705979 2.3871324 -0.8814798
H -0.8815837 -0.6396016 1.7679121
H 0.9035077 -2.0568223 -1.0200233
