9

N 1.3485672 0.27415708 0.46531186
C 0.0592021 -0.005607295 -0.07301177
C -0.5671446 -0.4858057 -1.0944844
C 0.13131554 0.6381204 1.2269081
N -1.2011424 -1.0831853 -1.9754568
H -1.3685217 -0.5226548 -2.80921
H -0.1314109 0.048630137 2.0995696
H -0.037982076 1.7102463 1.3147652
H 1.767117 -0.5739008 0.84560806
