9

N -1.64088490 0.04571702 -1.95547173
C -0.75999492 0.04772960 -1.08429049
C 0.04027901 -0.03981471 -0.07522922
C 0.53106911 0.34628511 1.23604092
N 1.20582128 -0.69136167 0.42228518
H 1.10412651 1.26455558 1.35528464
H -0.04225399 0.03509786 2.10352300
H 0.97351357 -1.62207783 0.76697615
H -1.41167563 0.61386906 -2.76911848
