11

O 1.55815951 -0.99095056 0.43897770
C -1.03606676 -0.45767441 -0.64471779
C -0.36743798 0.38795149 0.09406659
C -1.71763152 -1.27810333 -1.38621633
C 1.00965513 0.08199228 0.58894804
N 1.59530867 1.12453839 1.25629245
H -2.36519807 -2.02928369 -0.93940758
H -0.82355463 1.33695330 0.36917010
H -1.64258699 -1.24700913 -2.47033101
H 1.22273078 2.05688633 1.19290097
H 2.56662221 1.01469937 1.50031687
