11

C -0.43074885 -0.024552876 -1.377258
N -0.010125378 0.046580337 0.0062687444
C 0.052377816 1.0495256 0.8934102
N 0.4609628 -1.0347046 0.7226648
C 0.78695136 -0.71794903 1.9908025
N 0.5067757 0.6617886 2.0588832
H 0.5090361 -1.9391869 0.27729958
H -1.2716867 -0.7167137 -1.4866382
H -0.25399706 2.0533721 0.6207788
H -0.74958867 0.9702723 -1.6939735
H 0.40004304 -0.34843183 -2.0122383
