9

O -1.6452597 1.0132815 0.71230406
C 0.34496912 0.04693512 -0.21679026
C 0.77167076 -0.7006382 -1.0625614
C 1.3033291 -1.5505508 -2.1742523
C -0.24421759 0.9255057 0.80355906
N 1.2546915 -2.376006 -1.3001233
H -2.0139363 0.12376528 0.7742975
H 0.08854427 0.5775585 1.794526
H 0.14020908 1.940149 0.6690399
