12

C 1.0763128 -0.22991498 -0.010321578
C -0.98206663 0.8677246 0.34008253
N 0.34463066 1.0151652 0.2628542
C -0.015434223 -1.0452116 -0.6951375
O -1.7228893 0.0742714 1.1087853
H 1.4071107 -0.6909864 0.92812663
H 0.106200345 -2.1288683 -0.5771521
H -0.039700393 -0.8107467 -1.7675043
H 1.9856043 0.041171085 -0.5824249
H -1.3356211 -0.8017735 0.894058
H 0.7020492 1.913414 -0.03532246
H -1.5261961 1.7957554 0.13395636
