12

N -0.49938092 -1.13288956 -0.98236385
C -0.17802735 -0.05477967 -1.59470469
N -1.15913921 -0.76499110 1.32879438
C -0.20721889 -0.50241469 0.33630459
C 1.53843612 0.40827506 0.17029653
C 0.20550868 0.81805113 -0.41968339
N 1.21229857 -0.67664309 0.77070646
H -0.17517079 0.10872671 -2.66980868
H -2.10716502 -0.58699526 1.02126692
H -0.96077199 -0.28924159 2.20026238
H 2.53106773 0.85009788 0.12645843
H -0.20043720 1.82280422 -0.28752898
