10

O 1.8300825 -0.15862294 0.7784493
C 1.1351758 -0.80985814 0.03225919
C -0.11795462 -0.26847258 -0.56087095
C -1.0600164 0.38690904 0.39470142
N -0.2939329 1.1797627 -0.53832424
H 1.4018736 -1.847416 -0.24844423
H -0.50868064 -0.7861326 -1.4335821
H -2.1264856 0.32556224 0.19333273
H -0.7697461 0.3945065 1.44317
H 0.5096841 1.5837616 -0.060691368
