10

C -0.57832235 -0.8636748 0.66696244
C 1.5812695 0.81542957 0.67558044
C 0.3216485 -0.18083115 -0.14333704
C 1.8652592 -0.04728709 -0.19403203
N -0.47593108 0.27053186 -1.1523663
N -1.7403833 -0.13332519 -1.0014569
N -1.80698 -0.8116386 0.09983412
H 1.4255506 1.5575124 1.4354026
H -0.2026692 0.7739037 -1.9818276
H -0.38944203 -1.380621 1.5952402
