10

N 2.1650376 -1.9536518 -0.008061894
C 1.4561964 -1.1009561 0.314614
O -0.3996158 1.8516612 -1.122615
C 0.5239268 -0.043721262 0.73733294
C -1.0510108 0.85476655 -0.90699685
N -0.7263797 -0.10325999 0.009978178
H -1.2868948 -0.9408276 0.05267381
H 0.9656757 0.93402517 0.5309681
H -2.001991 0.63234276 -1.4240028
H 0.35505542 -0.1303788 1.8161094
