10

N 0.80609834 -0.1560258 1.680015
C -0.3783169 0.13875493 1.3652036
O -0.79274356 0.20794609 0.08828161
C 0.21563455 -0.086423054 -0.8721457
C -0.38761467 0.039439663 -2.2027135
N -0.8161446 0.12479221 -3.27362
H 0.917665 -0.15423177 2.6915386
H -1.2180287 0.37656948 2.0240662
H 0.59839064 -1.1008854 -0.727154
H 1.0550599 0.61006355 -0.7734722
