11

N -0.7323383 0.4722582 1.1555464
C 0.27951112 -0.119077645 1.7799681
C -0.17279671 0.6413376 -0.18836495
C 1.0611392 -0.041789237 0.42343614
C -0.2612286 -0.6288208 -1.039291
O 0.83562374 -1.237171 -0.32578552
H -1.6629816 0.67351705 1.5016645
H 2.0939503 0.30270422 0.3867521
H -0.24889529 1.6271429 -0.64888585
H -0.007900171 -0.48031494 -2.0933893
H -1.1840836 -1.2097862 -0.9516509
