11

N 0.7384125 1.7377638 2.34207
C 0.25047666 1.323152 1.3807946
C -0.34595522 0.78238624 0.14394486
C 0.5792796 -0.11789186 -0.7004907
C -0.40166408 -1.2319409 -0.31131405
O -1.2416626 -0.30207443 0.40074667
H -0.83587027 1.6022643 -0.3917485
H 0.5921171 0.14328775 -1.7591143
H 1.5992706 -0.22384794 -0.3286931
H -0.93710464 -1.7125851 -1.1341645
H 0.0027005856 -2.0005138 0.3579684
