11

N -0.35287953 0.25947915 1.37941334
C 0.92519900 -0.05829127 1.54958100
C -0.37523390 0.57727415 -0.05106873
C 1.12016503 0.22772801 0.02076573
C -0.46401185 -0.66611376 -0.94062068
O 0.92701143 -0.97930957 -0.71874752
H -0.84309200 1.51453245 -0.35494086
H -0.65260383 -0.44898898 -1.99638695
H 1.95698999 0.82541241 -0.33870273
H -1.12748700 -1.46465851 -0.59567151
H -1.11405710 0.21293599 2.04637830
