11

C -1.5326838 -0.31001186 -0.38642538
C 0.8771185 -0.30721566 -1.006246
O -0.02870699 1.2027948 0.63816106
C -0.15089113 -0.14965308 0.09689528
C 0.044042192 1.4543668 1.907041
N -2.6087031 -0.45038614 -0.77847064
H 0.713544 0.44191578 -1.7845455
H 1.8805506 -0.1803004 -0.5900336
H 0.018648783 -0.8543134 0.9215518
H 0.8010244 -1.3041818 -1.4490683
H -0.013943502 0.4569849 2.4311407
