11

C -1.44786669 -0.31312733 -0.63260161
C 1.01394167 -0.08916989 -0.91663541
O -0.19104303 1.07401883 0.81533741
C -0.29327701 1.10943738 2.10643422
C -0.15090638 -0.17102405 0.05030789
N -2.45480960 -0.43637707 -1.18223553
H -0.34591376 0.03586331 2.44919007
H 1.06277498 -0.99884027 -1.52156392
H -0.03583452 -0.99663364 0.76478363
H 0.89595078 0.77261807 -1.57777406
H 1.94698384 0.01323500 -0.35524270
