10

O -1.3896998 -0.1736211 -0.13692892
C 0.7161709 0.88391334 -0.71515024
O -0.56733537 -2.1667109 0.54939705
C 0.6913333 -0.008563508 0.55580044
C -0.37167087 -0.89152235 0.31663048
C -0.46201667 0.9540496 0.1409874
H 0.2590086 -2.509803 0.92306226
H -0.88643354 1.7501156 0.7393742
H 1.4168779 1.7137085 -0.66750956
H 0.5937656 0.4484338 -1.7056633
