10

N -0.15734795 -0.7497987 -0.845934
C 1.0614634 -0.28678948 -0.41814262
C 0.8361632 0.59463847 0.6107248
C -0.57226104 0.66459274 0.8095399
C -1.1574317 -0.17670904 -0.104613
H -0.2970852 -1.4112031 -1.5902181
H 1.9781923 -0.62250656 -0.88019866
H 1.591436 1.1340303 1.1645794
H -1.0883048 1.2680331 1.5436373
H -2.1948242 -0.4142878 -0.289375
