10

N -1.28186313 -0.32457412 0.05844756
C 0.79050757 -0.48368056 -0.69686658
C 0.73456346 0.59304308 0.35441119
C -0.52479616 0.65309400 0.78068279
C -0.61549878 -1.04760607 -0.83400359
H 1.13020158 -0.11592808 -1.67370887
H 1.48050337 -1.29685525 -0.43509331
H 1.56165257 1.19915744 0.69937132
H -1.00344568 1.27587297 1.52459773
H -2.27182478 -0.45252348 0.22216177
