9

O 0.75294465 1.5772102 -0.35063043
C -0.67259413 -0.1460725 0.072281845
C 1.5578723 -0.27139145 0.5097948
N 1.7611481 1.0841317 0.14399986
C -1.7428812 0.0018369769 -0.64163226
N 0.38879994 -0.8109998 0.47938484
O -2.652 0.36029276 -1.3117862
H -1.8054045 -0.97525954 0.20632008
H 2.412115 -0.81974846 0.89226747
