9

O -0.379442 0.39485383 -2.3995116
C -0.13869652 0.12754115 -1.2535398
C 0.45426694 -0.57130563 1.2590344
N -0.352963 0.55893207 1.1243323
C -0.62725157 0.8813989 -0.086748146
N 0.9472802 -1.3132854 0.33889386
O 0.6440935 -0.95436364 -0.96574736
H -1.2524632 1.7483516 -0.2868312
H 0.7051756 -0.8721231 2.2701175
