9

O -2.575664 0.6713096 0.2908038
C -1.6310824 0.097651675 0.763324
C -0.29860157 0.045042302 0.09667816
N 0.7641953 -0.54725033 0.5468936
C 1.6605077 -0.27806893 -0.45416206
N 1.1830449 0.42439935 -1.4413788
O -0.12800767 0.645731 -1.0799621
H -1.6630399 -0.44527417 1.7244672
H 2.6886475 -0.6135406 -0.4466638
