17

C 0.37587162 0.94558447 -0.19168746
N -0.33203397 1.35996784 1.03206711
C 0.19105083 0.72998557 2.36060963
O 1.26495351 1.66627594 -0.59309532
N -0.00445888 -0.24386163 -0.71671124
C -1.03334536 -1.11787718 -0.16514488
C 0.75988465 -0.76201063 -1.83810585
H -1.79054613 -0.55554391 0.39580189
H -1.33472821 1.18627869 1.00245799
H -0.18553774 2.35995730 1.11365557
H -1.54379779 -1.62459870 -0.98930148
H -0.59886682 -1.87098739 0.50430175
H 0.10369502 -0.34928924 2.15441802
H 1.26718203 0.95085395 2.29314276
H 1.51577176 -0.02851278 -2.11707215
H 1.24739522 -1.70282348 -1.55470289
H 0.09751020 -0.94339885 -2.69063324
