17

C -1.5318302 2.2385085 0.1372573
N -0.66174537 1.1795933 -0.3433933
C -0.114168346 0.31779036 0.5922659
O -0.23255563 0.5214403 1.7936335
N 0.6014958 -0.7427739 0.08180869
C 1.0450773 -1.7865398 0.9818314
C 0.8350955 -0.9373494 -1.335842
H -2.4662454 1.8631574 0.57482696
H -1.0095435 2.808058 0.90939105
H -1.7671483 2.906761 -0.694895
H -0.9347484 0.77352345 -1.2248725
H 0.5306774 -2.7369752 0.77756983
H 0.8262615 -1.474587 2.0019338
H 2.1242561 -1.9524599 0.87923247
H 1.0006683 0.024133865 -1.8309728
H 1.7435069 -1.5347409 -1.4645389
H 0.010946291 -1.4675401 -1.8352362
