11

N 2.1385083 0.30264395 0.60387504
C -1.115197 -1.0205326 -0.20630889
C 0.07361645 1.4108938 -0.019244594
N -0.94791394 1.1297203 -0.73674196
C -1.1776688 -0.006679793 -1.3300531
C 0.9489572 0.23008643 0.18007636
O 0.33157352 -0.9726151 -0.025146013
H 0.21980381 2.3463216 0.5055591
H -1.6222242 -0.74071324 0.72540754
H -1.3490481 -2.0411887 -0.49789926
H 2.4995928 -0.6379369 0.80047566
