11

N 1.6161802 -1.6021539 0.6434344
C 0.7575684 -0.7357176 0.30552945
C 0.8550144 0.6700026 0.73728377
N 0.020513203 1.5889035 0.42952538
C -1.0532962 1.2070196 -0.37670982
C -1.2018957 -0.049595878 -0.8036751
O -0.32616296 -1.0417333 -0.48724192
H 1.3947697 -2.5161128 0.25549066
H 1.7106642 0.91153264 1.3640082
H -1.7649102 1.9797776 -0.6388091
H -2.0084448 -0.4119222 -1.428836
