11

N 1.30750220 0.99093480 1.52903972
C -0.39267013 -1.32338497 -0.64975131
C 0.58291394 0.53980266 0.59557661
N -0.86086885 0.78545460 -1.16600320
C -0.48698520 1.32465451 -0.06743148
C -0.32487958 -0.26058852 -1.72700218
O 0.65793814 -0.76535346 0.19469176
H -0.04397426 -2.30659453 -0.95497305
H 1.87454109 0.23522273 1.93040279
H -0.97911397 2.16465339 0.40588236
H -1.33440315 -1.38480096 -0.09043211
