12

C 0.58774805 -0.03617882 -1.6481694
C 0.7267322 0.6235255 0.57120353
N -0.1711786 -0.01929927 1.301036
C -1.4481826 -0.33025655 1.0549121
O 0.3843708 1.002191 -0.69182956
H 1.7529274 0.6649249 0.9054565
H -1.8914808 0.0062175514 0.13103232
H 0.17308418 -0.2855753 2.2159524
H 1.6605326 -0.24816641 -1.7602651
H 0.18741031 0.32297152 -2.5985427
H -2.026786 -0.7478889 1.8645102
H 0.064822495 -0.9524651 -1.3452959
