12

C 0.525173 -1.3225751 -0.007299292
C 0.69395864 0.91231114 -0.6511832
N 1.2848588 -0.24153629 -0.18638574
C -1.4351643 0.30806485 0.5205005
O -0.7025041 -1.2046311 -0.32562467
H 2.2021127 -0.2105243 0.2377357
H -0.9000012 0.6858146 1.3859369
H 1.3278415 1.7934124 -0.60476613
H -1.8051448 1.0871961 -0.1351445
H -2.2178257 -0.39758784 0.7950253
H 0.9335622 -2.1892889 0.51381034
H 0.09313285 0.77934414 -1.5426053
