12

C -0.35231867 -1.1038405 0.9797176
C -0.2590008 -0.6284572 -0.46806237
N -0.2631346 0.8209897 -0.58386344
C 0.8789923 1.5499244 -0.49396363
O 1.9965378 1.0794425 -0.4067668
H -0.34940028 -2.1972866 1.0243049
H -1.2725104 -0.74510753 1.4547482
H 0.5033711 -0.7289832 1.5500815
H -1.0929962 -1.015765 -1.0616359
H 0.6705574 -0.98293173 -0.9235503
H -1.1437559 1.3120943 -0.54111
H 0.68365806 2.6399207 -0.52989954
