12

C -0.54837146 -0.78042669 1.55221285
C -0.30407950 0.09383762 -1.72103145
N 0.49274888 -0.01149535 1.21632051
C 0.64534512 0.87543230 0.24565237
O -0.36741308 1.03511481 -0.65138375
H -1.46529901 -0.67886236 0.99345485
H -0.48274189 -1.33711339 2.47440612
H 1.30126834 -0.08451488 1.82250219
H -0.26468366 -0.93274752 -1.33459264
H 0.58075043 0.28314973 -2.34521715
H -1.20687771 0.23077596 -2.31992374
H 1.61935335 1.30684959 0.06760004
