9

N -0.118241675 -0.8477208 0.45107368
C 0.35896197 0.37768275 0.8591058
C 0.2741097 1.1785504 -0.2460843
N -0.23881112 0.4809352 -1.3118883
C -0.46278474 -0.72818625 -0.8607155
H -0.19602853 -1.6773863 1.0146414
H 0.70116603 0.5508302 1.8680487
H 0.551703 2.2190592 -0.3438956
H -0.8700746 -1.5537647 -1.4302858
