9

N 0.0068547465 -1.0711783 0.42717734
C 0.54518425 -0.10409003 1.1682936
C -0.50977755 -0.60712934 -0.81999594
N -0.35330635 0.63791287 -0.97670555
C 0.32265475 1.0746933 0.2536283
H 1.2777103 1.552743 0.0041309176
H -0.27707386 1.8441164 0.7528106
H -0.97657335 -1.2883098 -1.524156
H -0.03567294 -2.0387585 0.7148167
