12

O 0.4352353 -2.1988707 0.56455946
C -1.3706564 1.2637138 -0.63038325
C 1.2714076 -1.0830847 0.56683654
C 0.55652535 0.16731896 0.11770141
N -0.66319937 0.07802431 -0.19762078
H -1.7782855 1.0856895 -1.6307609
H -2.2206204 1.430228 0.040082827
H 2.135545 -1.2414473 -0.09787168
H 1.6780479 -0.9006724 1.5745245
H -0.74503446 2.1691084 -0.65035444
H 1.1282238 1.1046774 0.08432666
H -0.4271893 -1.8746852 0.2589597
