12

O 0.05659499 -1.88029507 1.34330824
C -1.04467771 0.99853467 -1.33590099
C 0.52838592 0.18616418 0.19421887
C 0.98263534 -0.84867044 1.19375030
N -0.58694513 0.01901190 -0.37431148
H -1.22493770 0.49657911 -2.29201632
H -0.33930187 1.82923185 -1.49058830
H 1.18813184 1.04338151 0.00314919
H 1.16070373 -0.34006680 2.15483282
H -2.00472832 1.40215631 -0.99666223
H -0.67177381 -1.66307654 0.73952132
H 1.95591268 -1.24295071 0.86069855
