12

O -0.54443806 0.61902535 -1.6975573
C 0.18779093 1.1722225 -0.6316758
C 0.36257133 0.16247709 0.4876065
C -0.71258646 -0.7878444 0.83544403
N 0.4210188 -1.2208068 0.016097799
H -0.23571177 -0.298161 -1.7661265
H -0.3617213 2.0490222 -0.2698581
H 1.1821377 1.5120745 -0.9618258
H 1.0470289 0.4571112 1.2814373
H -1.6568065 -0.73894167 0.3033418
H -0.7722077 -1.1460365 1.862135
H 1.0829241 -1.7801425 0.54098105
