10

O -0.5790421 -0.8949323 -0.1272041
C -0.9772422 2.4316635 0.23516445
O 1.1144829 -2.406747 0.076650955
C -0.008775489 -2.127494 -0.23740618
C -0.16456796 1.4162067 0.26342645
C 0.19563508 0.09768002 0.41552705
H -0.75393635 -2.8149333 -0.6538072
H 0.8727689 1.3077537 -0.31831166
H 1.1355808 -0.23434503 0.84550595
H -0.83490336 3.2251484 -0.49954578
