10

O 1.2707374 1.1749146 -2.0767255
C 0.99098706 1.6020893 -0.99976176
O 0.3369778 0.904889 -0.011893181
C -0.9895145 -0.5709365 1.8923495
C -0.013053954 -0.36854658 -0.28534505
C -0.6670582 -1.1338398 0.6250602
H -0.8900274 -2.146527 0.28095797
H 1.2074121 2.6070526 -0.6192833
H -1.510911 -1.359194 2.47393
H 0.2644506 -0.70990115 -1.2792894
