9

O -0.42070920 -0.74917357 -1.33533750
C 1.74984685 -0.21086128 1.42787552
C -1.34455014 -0.07326388 -0.50311822
C 0.06732480 0.33189563 -0.54989583
C 0.98116574 0.01679626 0.53056688
H 0.32632543 1.21891396 -1.12851102
H -1.69838029 -0.63987295 0.35555512
H 2.42908621 -0.42439834 2.22199361
H -2.09010899 0.52996415 -1.01912870
