11

C 0.028490465 1.3787333 0.68697727
N 0.8621071 -0.46320012 -0.10802378
C -0.62593526 -0.61910355 -1.2633532
N 0.3543963 0.7907502 -0.46968785
C 0.78932834 -0.49677432 1.2230933
N 0.32207894 0.6384602 1.7588395
H -0.39000654 2.375431 0.729605
H -1.5063386 0.018139753 -1.2965076
H -0.099346355 -0.6718401 -2.2086406
H -0.8540475 -1.5985839 -0.8491064
H 1.119273 -1.3520124 1.7968045
