11

O 0.39674309 -0.31499997 1.93788338
C -0.02955935 0.00123294 -0.19862134
N -0.38576749 1.16534905 0.48464810
C -0.19332108 -0.11255825 -1.67783471
C 0.44514717 -0.88947859 0.69562328
C -0.11078347 0.90674689 1.71607943
H -1.23461864 0.06721534 -1.96072971
H 0.42164608 0.63368880 -2.18944088
H 0.09697661 -1.10593136 -2.03200019
H 0.83128250 -1.89628616 0.64450480
H -0.23774518 1.54502142 2.57988806
