11

O 0.95713437 -0.91297704 1.5041239
C 1.5462916 0.24004504 1.1535823
N 0.9724742 0.8719501 0.18903889
C -1.0557302 0.44973248 -1.2443256
C -0.116798915 0.066900186 -0.14902382
C -0.11389594 -1.0144142 0.6566669
H -0.73694754 -1.8887738 0.7692594
H -1.4894615 1.4344864 -1.047385
H -1.8686912 -0.27593672 -1.339166
H -0.5260441 0.5070447 -2.199814
H 2.4316695 0.5219428 1.7070429
