12

C 1.2265497 -1.2812331 -1.1131811
C -0.91607773 1.1444589 0.8200972
O -0.91571975 -1.3023795 -0.51838017
N -0.78210664 2.1964567 1.5052384
C 0.19014154 -0.6510249 -0.36594757
N 0.22199355 0.4917994 0.34195402
H -1.6908972 2.5635843 1.774738
H 2.0590782 -0.68839747 -1.4884686
H 1.1144851 0.9184904 0.54588896
H -0.1940261 -1.8030678 -1.37125
H -1.8420067 0.6399121 0.5356526
H 1.5285861 -2.2285993 -0.66634184
