10

O 0.033719618 -2.5520968 0.5162839
C -0.23778981 -1.991393 -0.510396
O -0.23456234 -0.66624606 -0.69679964
C 0.13434242 0.09601118 0.46462587
C 0.10423803 1.5124663 0.1121216
C 0.08888321 2.684826 -0.14055769
H -0.53060657 -2.4850955 -1.4479052
H -0.56618893 -0.12107038 1.2774781
H 1.1337209 -0.20484063 0.79602677
H 0.07424355 3.7274392 -0.37087756
