11

N 0.10566334 -1.3136716 -1.7386267
C -0.5133464 1.2803147 0.440195
O 0.41845852 0.86452717 -0.90338117
C 0.2049199 0.30726242 1.3447036
C 0.18799049 -0.58101 -0.7204128
O 0.28295726 -0.910018 0.5617926
H 0.079919405 -2.2930124 -1.4476254
H 1.2239983 0.6255787 1.5851362
H -0.113852374 1.0915341 -1.6790427
H -1.5234983 0.8590199 0.30963716
H -0.3532102 0.06947517 2.247624
