11

N 2.2590199 -0.64358455 0.72506505
C 1.1072435 -0.3171364 0.34171104
O 0.5104739 -0.897781 -0.7256915
C -0.85559154 -0.49715006 -0.7568135
C -0.83629197 0.8033644 0.037488315
O 0.28660396 0.61770743 0.8971541
H 2.5520437 -0.06626388 1.5062495
H -1.471678 -1.2642647 -0.2761197
H -1.1633693 -0.37495035 -1.7971067
H -0.6627363 1.6763225 -0.6012742
H -1.7257175 0.96373683 0.64933735
