10

C 0.3961461 1.1182033 -1.4620512
N 0.5415246 -0.12072589 -1.0260729
N -0.0591364 -0.046933096 0.14912395
C -0.18239848 -1.1671363 1.0597261
N -0.26367012 1.9046236 -0.585658
N -0.545543 1.1470964 0.43143025
H 0.7623773 1.4639584 -2.4190526
H -0.7167061 -0.80642027 1.9372429
H -0.7431288 -1.9692065 0.5768345
H 0.810535 -1.5234598 1.3384769
