10

C 0.68594521 1.00380322 -1.43762385
N -0.06875045 -0.03274413 0.14879173
N -0.19146794 1.24101195 0.47202621
C -0.49864249 -1.09909527 1.03045670
N 0.28593075 1.91801764 -0.52873454
N 0.47539333 -0.23810027 -1.03824789
H -1.26929624 -1.69254626 0.53565561
H 0.35365160 -1.73224140 1.28206373
H 1.12715103 1.26041378 -2.39104506
H -0.89991488 -0.62851944 1.92665717
