12

N -1.0714469 -0.055999003 -0.4359063
C -0.0013977948 -0.88546526 0.1448853
C -0.19998537 -1.0813173 1.6048708
C -0.581107 1.145215 -0.83503485
N 0.7266684 1.1506891 -0.81134987
C 1.2124473 -0.010266869 -0.14157961
N -0.37404937 -1.2309026 2.7365072
H 2.1431382 -0.43105242 -0.5063597
H -2.0394113 -0.22102076 -0.20587717
H -0.000703743 -1.8797916 -0.33289146
H 1.3949164 1.5405645 -0.045096215
H -1.2090687 1.9593469 -1.1721681
