12

N 0.85444772 -0.01105363 1.11924163
C -0.52596160 0.15663588 1.17287685
C -0.94276865 -0.11143555 -0.26254208
C 1.26569208 -0.66976218 0.06792294
N -1.02297107 2.08712088 -1.76140949
C -0.99555047 1.12521009 -1.11894455
N 0.15099282 -1.00300066 -0.68183957
H -0.87013653 1.05142691 1.67719705
H 2.24508491 -1.10637863 -0.05723181
H 1.46729541 0.22657248 1.88445564
H 0.28441184 -1.13015300 -1.67648838
H -1.91053681 -0.61518220 -0.36323837
