12

O -0.54454386 0.61657935 -1.6991581
C 0.18622436 1.1713724 -0.63342357
C 0.36326283 0.16209176 0.48642096
C -0.7120855 -0.7883678 0.83509904
N 0.42298916 -1.2194839 0.015826482
H -0.23486874 -0.30073696 -1.7619965
H -0.36467046 2.0464792 -0.27114233
H 1.1806041 1.5139952 -0.9623041
H 1.0459713 0.45737195 1.2815257
H -1.6565884 -0.7396415 0.30334315
H -0.7720124 -1.1450262 1.8616724
H 1.0857178 -1.7746335 0.54413694
