12

O -2.0323107 -1.0916743 0.15728745
C 1.2686054 0.88287896 -1.2184222
C -1.0935451 -0.7807372 1.1412375
C 0.098296024 -0.048074376 0.58059114
N 0.13215385 0.18639983 -0.65982276
H 2.030008 1.1523724 -0.4716008
H -1.5438957 -0.15283564 1.9268587
H 0.91555965 1.7918516 -1.7164975
H -0.7316296 -1.6955993 1.6374531
H 1.728106 0.25253445 -1.9859309
H -1.6624198 -0.7471117 -0.67090505
H 0.8910718 0.24999516 1.2797518
