11

O 1.2548559 -0.65609425 -2.1043873
C 0.624553 -0.34564987 -1.1157118
N 1.1408976 0.035822682 0.09932816
C 0.1305738 0.33845428 1.0819578
C -1.1402292 0.092595726 0.30666634
C -0.8610527 -0.29376993 -0.9365886
H 2.1321592 0.08322936 0.25936738
H 0.18966295 1.376693 1.4330326
H 0.19675314 -0.31369826 1.9611139
H -2.1207929 0.22681502 0.74847066
H -1.5473807 -0.5443977 -1.7332497
