11

O -2.2674 1.2021786 -0.25636053
C 0.61315113 -0.38755953 -0.46283
N 0.16483949 0.8250808 0.35903558
C -0.74709934 -0.6406656 -0.9806396
C 0.7531652 -0.34405944 1.0095785
C -1.363428 0.44309482 -0.39940414
H -1.1223661 -1.3781596 -1.6729989
H 0.64897704 1.7115997 0.41102964
H 0.06146694 -0.90826946 1.6292089
H 1.7426387 -0.17948005 1.436426
H 1.5160549 -0.34376052 -1.0730457
