14

C 0.16488485 -1.2385356 -1.9429262
N -0.73007137 1.2019377 0.6387246
C 0.40774524 0.6178748 2.2849524
O 0.63189906 -0.48998675 0.65175027
N -0.32500964 -0.0018760056 -1.3677273
C -0.16084291 0.23761441 -0.025259905
H -0.41001424 1.0894004 2.8202608
H 0.67899287 -0.3381486 2.7221062
H 1.1564313 -1.4402484 -1.5323408
H 0.24866702 -1.1289526 -3.0277004
H -0.47997952 -2.0976884 -1.7179008
H -1.1507258 0.39680317 -1.7849805
H 1.248528 1.2779558 2.1134706
H -1.2805046 1.9138503 0.16757147
