14

C 0.38619554 0.045107476 -0.52207685
N -0.7674569 -0.5375033 -1.0055983
C -1.9663324 -0.660024 -0.19327813
O 0.37919348 0.080345504 0.8222163
N 1.3790761 0.4855264 -1.1887885
C 1.5611163 0.58856577 1.4292859
H -2.6952324 -1.2555331 -0.749221
H 1.3770583 0.5343406 2.5032656
H 1.7478824 1.6200621 1.1202582
H -0.92460763 -0.36341864 -1.9849427
H 1.2363797 0.35953465 -2.1859722
H -2.4161942 0.3072675 0.062796995
H 2.429345 -0.020104246 1.1592067
H -1.7264234 -1.1841668 0.7328487
