10

O -0.27722526 -1.8228132 1.4048829
C 0.06843256 0.85756916 -0.4619515
C -0.18799561 -0.915188 0.63127154
C -1.051245 0.29499188 0.3143897
O -1.0887978 0.37337318 -1.1149796
C 0.9682485 -0.3612568 -0.25449747
H -1.8519102 0.7703406 0.86783385
H 1.8640019 -0.18574981 0.3505776
H 0.33635145 1.9002719 -0.57654524
H 1.2201396 -0.91153896 -1.1609819
