10

O 2.2072053 -0.61605465 -0.035208754
C 0.2894935 0.9904679 -0.0036544607
C 1.0593741 -0.27421606 -0.12517153
C -0.20495208 -1.121775 -0.3120377
O -0.910032 0.5823559 -0.6925509
C -0.7957176 0.4643949 0.8788867
H -0.43875095 -1.4239004 -1.3363959
H -0.43066275 -1.8883204 0.42614502
H 0.6150354 2.016806 -0.127902
H -1.390993 1.2702416 1.3278894
