10

O -0.94962007 1.8444715 0.648417
C 0.9178572 -1.0076572 0.021330895
C -0.8410543 -0.0897686 -0.8618448
N -0.09724352 -1.1161666 -1.019335
N 0.6933878 0.19217376 0.80283225
C -0.34328908 0.71508896 0.2718064
H 0.87448996 -1.8956119 0.66137713
H -1.7034751 0.13969105 -1.479683
H 1.9090235 -0.9899898 -0.4459324
H -0.4600765 2.207769 1.4010316
