10

O -0.38028485 1.6398803 -1.2135135
C -0.16974321 0.60763437 -0.35394546
C 0.51599944 -0.5730383 -0.5349996
N 0.4066852 -1.2368836 0.6465639
N -0.28953975 -0.57125777 1.565875
C -0.65043867 0.5565407 0.97171247
H -0.02918285 1.4044544 -2.0799744
H 1.0520488 -0.9819801 -1.379229
H 0.78481984 -2.1389697 0.8783786
H -1.2403641 1.2936196 1.499132
