11

O 1.3698312 1.2016613 -0.41891783
C 0.6972647 0.2131534 0.30930638
C -0.79343283 0.5253473 0.585254
N -1.1162189 -0.7113764 -0.13045213
C 0.16573209 -0.9706352 -0.5261603
O 0.66547716 -1.7686518 -1.2780997
H 1.979533 0.7560302 -1.0200083
H 1.25057 -0.10160569 1.2043147
H -1.1008223 0.52603775 1.6337999
H -1.1249621 1.4342338 0.07897901
H -1.9929717 -1.104195 -0.43801573
