10

N 0.12149452 -1.1437566 -1.4398036
C 0.56038594 1.1528146 1.1732489
O -1.3670797 -0.36192298 0.02577222
N 0.87118894 0.36874405 0.11792287
C -0.123972304 -0.3446076 -0.3892311
O -0.5526134 1.2764825 1.712998
H -1.3781618 0.28079155 0.80373794
H -0.6069099 -1.7363552 -1.7988939
H 1.0660578 -1.222438 -1.7731041
H 1.4096097 1.7302477 1.5673531
