10

N 1.4809879 0.50298923 0.9138051
C 0.22460471 0.6222862 0.37489977
O -0.44750714 1.6287793 0.44153982
N -0.23117414 -0.5491863 -0.23092471
C -1.4610443 -0.6398829 -0.8673344
O -1.8572681 -1.6703582 -1.3522357
H 1.882176 1.3760889 1.2206331
H 2.128863 -0.17053013 0.5361671
H 0.28797168 -1.4124545 -0.1620794
H -2.0076098 0.31226808 -0.87447065
