11

O -0.34849396 0.34145334 2.5201645
C 0.2535829 -0.7488703 -0.7921045
N -0.07401451 1.1527312 0.32435048
C -0.118219905 0.06085302 1.3579348
C 0.17571557 0.6980828 -0.89092636
C 0.12138326 -1.099584 0.58352196
H 0.3346625 1.314258 -1.767742
H -0.37215245 2.091528 0.5547108
H -0.8099024 -0.3612128 -1.2965345
H 0.12772776 -2.1014743 0.98258823
H 0.7097114 -1.3477646 -1.5759633
