10

O 1.0147998 1.8785887 0.38476256
C 0.652905 0.8033296 0.0014645079
C 1.1572828 -0.26099223 -0.9820538
O 0.0010815299 -1.0663712 -0.6337796
C -0.48488393 -0.13010582 0.2630002
C -1.5716596 -0.16424835 1.0250974
H -1.7766355 0.6773077 1.6763262
H 1.157914 0.025647933 -2.0383525
H -2.2484903 -1.0103673 1.0170057
H 2.097686 -0.75278896 -0.7134706
