11

O 0.9205647 -1.5556889 -1.3307737
C -0.062372934 -0.5055129 0.6367529
C -0.7465975 1.6596407 -0.239013
N -0.7752331 0.60740006 0.66498214
C 1.024524 -0.9301341 -0.16859187
O 0.023907244 -1.6235604 1.2779083
H 0.00058046414 -1.5519081 -1.614153
H 2.0388334 -0.91144615 0.21634173
H -0.02451914 1.5443699 -1.0384604
H -0.9334334 2.6329048 0.18931383
H -1.4662535 0.63393503 1.4056929
