11

O 0.33777233 1.22168241 1.21360691
C 0.21568224 -0.11888499 0.70020800
C -0.89763074 0.81586480 0.65509700
N 1.01760454 -0.30018017 -0.43669086
C 0.81113731 -1.07245790 -1.47240067
O -1.98087016 0.69702885 1.47943158
H 1.62372071 -1.28417983 -2.15317001
H 1.94311264 0.11361404 -0.33882942
H -1.71890052 0.11401450 2.20355431
H -1.18964000 1.34308221 -0.25445213
H -0.16198806 -1.52958383 -1.59635469
