10

O 1.422083 -0.4608813 0.43367025
C 0.51738924 -1.3208767 0.8435772
C -0.5595759 0.5054247 -0.37186834
C -0.8205645 -0.7908889 0.37944502
O -1.3475964 1.2380303 -0.9118709
C 0.9462183 0.69594544 -0.30486345
H -1.4855036 -0.63779753 1.239333
H -1.3236896 -1.5342581 -0.24988687
H 1.4175584 0.7022976 -1.2914696
H 1.233681 1.6030047 0.23393352
