10

O -1.4337953 0.28244272 0.5684484
C 0.3585578 -0.80156416 -0.39137903
C -0.8752725 0.02884777 -0.6963671
C -0.30009133 1.1233116 0.63005364
O 0.8697806 -1.7009631 -0.99394387
C 0.8134647 0.05409282 0.79597455
H -0.34897822 1.1180726 -0.86889535
H -1.6007335 -0.08427908 -1.4991794
H 1.8406323 0.4052762 0.6873377
H 0.6764353 -0.42523733 1.7679505
