10

O 1.7527847 -1.1312808 1.0085293
C 0.80341494 -0.6112866 0.50014925
C 0.50543576 -0.08366752 -0.93161726
C -0.72153777 0.5829688 -0.30757397
O -1.5205626 -0.46528396 0.19904189
C -0.4714102 0.026529597 1.0351187
H 0.29094002 -0.8204308 -1.7074063
H 1.2946006 0.59883827 -1.2618214
H -1.1987286 1.5234572 -0.5592551
H -0.734937 0.3801556 2.0248346
