11

N 1.3478339 0.5668542 1.8397639
C 0.6405452 0.26767594 0.83617115
C -0.76669705 -0.1781349 0.85517615
C -1.1581129 -0.39652482 -0.39739293
C -0.01405925 -0.10550901 -1.3257346
O 1.0530638 0.3006921 -0.46958482
H 2.285279 0.8466907 1.5547736
H -1.3275632 -0.28801188 1.7734953
H -2.1288316 -0.73012304 -0.7407973
H -0.23360452 0.70323735 -2.030096
H 0.30214652 -0.9868467 -1.8957741
