10

O -1.1587824 -0.548151 0.31089932
C 0.7835433 0.51543134 -0.09972117
C -0.82462776 -0.17894118 -0.92841804
O 0.39957744 -0.48128104 -1.2772794
C 0.097552806 -0.3216602 1.0051241
O 0.009855014 1.5059828 -0.47002965
H 0.57682055 -1.2759764 1.2272228
H 1.8701783 0.64959913 -0.031454537
H -0.11398235 0.25438404 1.9064332
H -1.640135 -0.11938753 -1.6427766
