10

O 1.2489847 -1.3878304 0.9907125
C 0.35543993 -0.94668907 0.014894596
C -0.019099193 0.4992114 0.22247405
O 0.42061275 1.1498266 1.1462364
C -0.97935975 1.1495827 -0.7588134
O -1.4501243 0.55692863 -1.6940037
H 1.4103574 -0.6415952 1.5830599
H 0.78295356 -1.048975 -0.99410635
H -0.5703735 -1.5419979 0.019843558
H -1.1993917 2.2115378 -0.5302979
