10

O 0.94640225 -0.3082671 -1.0020744
C -0.19049342 0.5431994 -1.0498884
C -0.50505906 -0.61417127 0.7396698
O 0.34161437 1.3716271 -0.023812972
C 0.8191403 0.08038558 0.37265253
O -1.2247274 -0.18407859 -0.43956724
H -0.9787806 -0.21700408 1.6405088
H 1.7146562 0.04306234 0.9904184
H -0.48488113 0.9894604 -1.9968412
H -0.4378715 -1.704214 0.7689345
