12

O 0.7926112 -0.047502056 -1.548884
N 0.38561276 -0.31030872 0.8366766
C -0.81274945 0.5086912 0.83462006
C 1.3087462 -0.043834712 -0.23953636
N -2.4986105 -0.21737988 -1.0496782
C -1.7752095 0.14043044 -0.22594702
H -1.3104864 0.41724882 1.8059858
H -0.5325378 1.5602351 0.71022797
H 1.6960199 0.9682406 -0.10630551
H 0.47499812 -0.93174016 -1.766949
H 0.13138609 -1.2915106 0.8774804
H 2.140219 -0.75257003 -0.12769042
