10

C -0.27264816 0.3958476 -0.53458995
C -1.2850913 -0.14677225 0.3072538
O -0.25556472 0.4136541 -1.7981327
C 1.0979451 -0.2405642 0.112714075
H 1.1902564 -0.10377151 1.1884536
H 1.878477 0.29779297 -0.4231048
H 1.1264129 -1.2970717 -0.15474899
H -0.13288575 1.3991691 0.019249933
H -1.2050617 -0.044579294 1.3877608
H -2.1418402 -0.6737047 -0.10485592
