10

C -0.66001644 -0.91933882 -0.62722208
C 0.05084884 0.41154123 -0.49606350
O 0.15243311 1.17894586 -1.42355939
C 0.63284421 0.72101515 0.86907029
H -1.14080689 -0.99217833 -1.60642338
H -1.40459190 -1.04048427 0.16607351
H 1.20663982 1.64941368 0.82863297
H 0.06500202 -1.73397868 -0.52016099
H 1.27358937 -0.09967528 1.20903666
H -0.17594198 0.82473920 1.60061627
