11

N 0.7929768 -0.34008223 1.70922
C 0.4279597 -0.47881764 0.47048378
C -1.3294487 0.20855781 -1.1730269
N -1.1441019 -1.1477003 -0.9402847
C 0.62093395 0.80925333 -0.18734795
N -0.19849679 -1.5196421 -0.14508894
N -0.46075755 1.1566594 -0.96609837
H 0.9460917 -1.1394798 2.32401
H 0.98280895 0.934454 1.2215939
H 1.5974128 1.0802749 -0.5878754
H -2.235379 0.43652236 -1.7255851
