11

N 0.6909116 1.2963023 -0.23513214
C 0.057846475 -1.0427253 0.35456717
C 0.34527594 0.36466882 0.8020043
N -0.71520925 -1.0792279 -0.87636596
C -0.6630784 -0.020863997 -1.578199
N 0.17685793 1.1176169 -1.3699366
N 0.28556085 0.7473491 2.0059376
H -1.2442087 0.046019647 -2.494622
H -0.48660374 -1.5694623 1.1414952
H 0.558366 1.7305789 2.0712817
H 0.99428123 -1.5902561 0.17896962
