10

N 0.7659093 -0.58240825 -0.9473196
C -0.24390544 0.09938205 -0.22439691
N -1.296377 0.70839864 -0.94161
N -0.3089793 0.057217892 2.311285
N 1.7619438 -0.927961 -0.2759279
C -0.22333652 0.15731142 1.1019968
H 2.3801663 -1.4213746 -0.9301313
H 0.1788331 0.76558065 2.8598526
H -0.9613995 1.0823945 -1.8205787
H -2.052855 0.061458528 -1.13317
