10

N 1.8464348 0.06496978 -0.26071626
C -0.36019468 -0.12300575 0.22850929
N -1.4466685 -0.5794501 0.9821447
N 0.9613852 -0.37745854 0.50438213
N 0.38065904 1.2085274 -1.7133672
C -0.36995667 0.68286085 -0.8899066
H -0.850764 1.0104436 -1.9879253
H -1.5179701 -0.108910166 1.8768736
H 2.7582211 -0.19912042 0.12140758
H -1.4011462 -1.5788567 1.1385982
