10

O -1.0543605 -0.9441909 -1.7424004
C -1.0500748 0.5621156 0.16433363
O 1.1070828 0.18626794 0.8090694
C -0.05547232 0.83523226 1.0221516
C -0.5197977 -0.41649455 -0.79651517
C 0.92289716 -0.64948434 -0.33694318
H -2.0503337 0.9709796 0.1592967
H 1.6466588 -0.36250085 -1.1047839
H -0.039722078 1.5083559 1.8740113
H 1.0931221 -1.6902808 -0.04821993
