11

O -1.4741467 1.6273642 1.2695287
C -0.7517162 0.84122366 0.6933961
N -0.7584358 0.5604468 -0.6509008
C 0.22276841 -0.42633647 -1.0346229
C 0.87420386 -0.74535275 0.2870991
C 0.32359567 -0.02790223 1.264413
H -1.395605 1.0137473 -1.2837037
H 0.95026743 -0.03022602 -1.7548804
H -0.23679328 -1.3179021 -1.4819534
H 1.6766697 -1.4675779 0.37336734
H 0.56919193 -0.027484199 2.318257
