11

O -1.8253165 -0.4248741 1.1991638
C -0.6819529 -0.15780714 0.5166566
N -0.74581164 -0.18747607 -0.84117943
C 1.3459977 0.31842977 -0.3092368
C 0.5022913 0.104758225 -1.3609747
C 0.5975428 0.15242475 0.9015543
H 0.6646662 0.13125938 -2.4267075
H 2.394847 0.56940025 -0.37252635
H 0.9592849 0.25096217 1.9153488
H -1.6284614 -0.36556065 2.1408265
H -1.5830872 -0.3915166 -1.362925
