9

N 1.1923643 -1.0904652 -1.2182392
C 0.25742832 0.8066331 0.121097356
C 0.26856244 -1.1769887 -0.45611393
C -0.76702946 -0.27902803 -0.06841707
N -0.90785277 0.7483028 0.98642904
H -1.5481822 -0.21352771 -0.8228579
H 1.1311443 0.51725984 0.7110813
H 1.0666565 0.26805195 -1.1811217
H -0.69309115 0.4197619 1.9281421
