9

N -1.435862 0.42320788 -0.40402868
C -0.47736058 1.4202688 -0.1952863
C 0.6274478 -0.7054779 0.013014244
C -0.07944976 0.054540515 -0.8705958
N 1.1707402 -1.4532477 0.80048823
H -0.19284928 1.5172313 0.8733864
H -1.7447375 -0.12170712 0.40995553
H 1.9928179 -1.1319858 1.3045193
H 0.13925336 -0.0028297913 -1.9314529
