9

N 1.1103911 -0.97721374 -2.187683
C 0.8955396 -0.50951266 -1.153546
C 0.61556584 0.051242497 0.1550245
C -0.70957786 0.69129556 0.38025114
N -0.39193648 -0.57956 1.0043885
H 1.4906803 0.42327142 0.68154866
H -0.76609045 1.5415208 1.0548751
H -1.4026423 0.7118544 -0.45750403
H -0.84193 -1.3528984 0.5226452
