12

N -0.118480824 -0.94190484 -0.029166294
C 0.95622844 -0.08855272 -0.15177535
C -0.98498416 -0.076324195 0.43823454
N -0.74998313 1.1768591 0.622277
C 0.5947216 1.1894046 0.24318269
O -2.3829165 -0.53436434 0.68697184
N 2.1958969 -0.59459746 -0.5709917
H 1.1829447 2.0957723 0.29342812
H -2.613358 -1.1453714 -0.036635805
H 2.0820162 -1.4573933 -1.0882868
H 2.733593 0.077086985 -1.098608
H -2.8956785 0.29938525 0.69136965
