11

C 0.88591444 -0.9280412 -1.2375094
C -0.3822851 0.8503501 0.2701149
C 0.07053188 -0.40511858 0.102939256
N -1.2699823 0.25089127 2.3997118
N 0.29293203 -1.6064805 0.3533424
N -1.0724789 1.0653251 1.5254393
H -0.26561892 1.6594151 -0.43425527
H -1.3962257 2.0542982 1.5955849
H 0.147786 -0.7366249 -2.016416
H 1.741502 -0.2527253 -1.2273659
H 1.2479242 -1.9512895 -1.331586
