9

O 0.75432754 0.24783722 -2.0793285
C 0.26344228 0.1088719 -0.83801347
N 0.987631 -0.31732467 0.17482626
N 0.07767565 -0.28304198 1.1806716
C -1.1048661 0.14864145 0.7214115
N -1.0284905 0.41054004 -0.5675739
H 1.6861492 -0.0093113715 -2.049582
H 0.34479892 -0.5618156 2.1104732
H -1.9806678 0.25560293 1.3471155
