9

O -1.4634491 -0.11778916 1.3442242
C 0.054856922 0.9899871 -0.2145896
N 0.26519305 -1.1954151 0.17887491
N 1.1406945 0.5681849 -0.8756536
C -0.43931422 -0.10674483 0.48381087
N 1.2534177 -0.8164271 -0.6043174
H -0.2871046 2.0133226 -0.24744423
H -1.5584939 -1.0241117 1.6706213
H 1.0341997 -0.31100652 -1.7355266
