9

N 1.1092237 -0.9810237 -2.1882975
C 0.89511454 -0.51095617 -1.1541165
C 0.61567134 0.052203313 0.15378769
C -0.70947087 0.6914331 0.3804529
N -0.39111385 -0.5787361 1.0058976
H 1.4907273 0.42577064 0.6789259
H -0.7664007 1.5424577 1.055288
H -1.4043384 0.710526 -0.45369792
H -0.8394133 -1.3516744 0.5217599
