11

N 1.8627025 -0.034478016 -1.4270842
C -0.9232465 -0.68922406 0.5702621
C 0.028013552 -1.1365948 -0.24237275
C -0.76791793 0.7932087 0.73851526
C 0.8616436 0.008453124 -0.6571739
O 0.36271024 1.1341512 -0.06418633
H 2.2638443 0.8933472 -1.5529848
H -0.56457525 1.0823948 1.7756634
H 0.22019456 -2.1446478 -0.5825448
H -1.6390743 1.3551371 0.38486007
H -1.7042947 -1.2617481 1.057046
