11

O 1.1977609 0.63503593 -1.9650048
C 0.16250187 0.6826151 -1.3567544
C 0.040574644 0.16399844 0.05294197
C 0.8681573 -1.0023133 0.43982527
O 1.2018669 0.2899254 0.8678289
C -1.2521878 0.36518928 0.7781601
O -2.2866945 0.5996183 0.20726515
H -0.7704676 1.0946963 -1.7847736
H 0.4990107 -1.6807669 1.2106394
H 1.5141034 -1.41993 -0.33022305
H -1.1746258 0.27193147 1.8800949
