12

O 0.67642593 1.0415897 -0.22919266
C -0.275904 -1.0225688 0.18681395
C 0.51341146 0.12476345 0.8370252
O -0.12650208 0.7411103 1.9070721
C 0.015402637 0.52601326 -1.3662214
O -0.9324116 -0.39742783 -0.9004569
H 0.7457202 0.037880633 -2.031503
H 1.4910893 -0.1912352 1.2159041
H -0.5013923 1.3331883 -1.8908963
H 0.3933224 -1.8189065 -0.17343031
H -0.97664845 1.0693532 1.5808194
H -1.0225135 -1.4437606 0.8640659
