12

O -1.2604688 -0.66366166 1.2366227
C 0.12754196 -0.48641965 1.1818846
C 0.58506405 0.7022365 0.34253424
O 0.855889 0.40352416 -1.0466075
C -0.14976017 0.027927568 -1.8249401
O -1.2882351 -0.187916 -1.4854286
H -1.5817144 -0.6305154 0.3206302
H 0.6610794 -1.3854109 0.82995
H 0.4522696 -0.2988346 2.2114646
H 1.5507038 1.0729643 0.6935761
H -0.16049935 1.500203 0.399548
H 0.20813002 -0.054097414 -2.8592343
