11

C -0.24428906 0.41600803 1.0543416
N 0.16846183 1.2405863 0.108820654
C -0.70964724 -1.8836011 1.202449
O -0.22440284 -0.8405243 0.4652455
C 0.5666433 0.9257012 -1.2674398
O -1.2724353 -1.8178715 2.2490218
H 0.790831 1.8628339 -1.7814102
H 0.21489736 2.2080867 0.38861132
H -0.24440189 0.41218966 -1.7901394
H -0.50012547 -2.8115542 0.6467908
H 1.4544683 0.2881451 -1.2762914
