11

C -1.4712951 0.7956013 -0.4523431
N -0.48093396 -0.08806683 0.12666951
C 0.84063655 0.023914972 -0.120811805
O 1.3849512 0.8451817 -0.83550626
C 1.6737473 -1.0266365 0.609242
O 1.1954424 -1.8628687 1.3288149
H -0.9480993 1.5199833 -1.0805581
H -2.1802583 0.23387435 -1.0680618
H -2.0193603 1.3293489 0.33092391
H -0.75316036 -0.8323138 0.75331974
H 2.7583299 -0.9380186 0.40831113
