9

O 0.7538376 0.24717501 -2.0790012
C 0.26438788 0.111344285 -0.8364087
N 0.9887426 -0.31476694 0.17617589
N 0.07793269 -0.28322482 1.1815784
C -1.1047873 0.14860684 0.72136134
N -1.0281963 0.41238672 -0.5669734
H 1.6840897 -0.013676105 -2.052502
H 0.34623984 -0.56324625 2.110603
H -1.9822464 0.25540116 1.3451663
