9

O -0.43348965 2.0994523 0.34374657
C -0.3465241 -1.2366275 0.07350183
N 1.0836905 0.393294 -0.1661405
N 1.0234407 -0.92889065 -0.17689897
C -0.15253738 0.80791664 0.18242818
N -1.0730712 -0.13636127 0.32230157
H 0.15970373 -1.3395317 -1.0889627
H -0.64933664 -2.2510812 0.3127218
H 0.38812405 2.5918295 0.19730216
