10

C 0.8196942 -0.09472153 0.7853097
C 0.44758725 1.1348139 0.2605885
N -0.51047444 1.2593662 -0.65835094
C -1.0919406 0.12712993 -1.04578
N -0.82247347 -1.1055478 -0.61878824
C 0.1367685 -1.2034298 0.29984447
H 1.5993127 -0.18514688 1.5318074
H 0.9303751 2.0549338 0.58349955
H -1.8752495 0.21787289 -1.7959846
H 0.36640027 -2.2052708 0.65785426
