10

C 0.97629654 0.17629798 -0.59523255
C -0.21473984 0.85798943 -0.6439793
N 1.0671686 -0.84176934 0.27781656
C 0.036782093 -1.2459719 1.1013764
N -1.1539909 -0.6012947 1.0490543
C -1.2422982 0.41766232 0.20734875
H 1.2595787 -1.8064921 0.9302002
H 1.8435835 0.41125327 -1.2049544
H -0.36894107 1.6976134 -1.3119401
H -2.2034392 0.9347116 0.1903099
