10

N -0.04877902 0.25366695 0.44946123
C 0.61212340 -0.52279623 1.20998804
O 0.76370098 -0.26814342 2.50330984
N -0.79132796 0.73625740 -1.65653025
C -0.11193498 -0.17259707 -0.90563511
O 0.37569759 -1.19395971 -1.34419622
H 0.29159967 0.56170531 2.68604062
H 1.10283620 -1.44129321 0.89112488
H -0.96316268 0.52377467 -2.62303879
H -1.23075332 1.52338557 -1.21052402
