9

O 1.012308 -0.6174332 -1.3677288
C -1.5849433 0.3621726 0.88661104
C 0.63096243 0.78214824 0.62550145
O -0.50578266 1.0400077 1.3532791
C 0.30439258 -0.086382486 -0.34202817
N -1.0565344 -0.32247362 -0.1610764
H -1.61845 -0.91150504 -0.7565373
H 1.2728308 -1.5245376 -1.1467354
H 1.5452166 1.2780033 0.9087148
