11

C 1.4806917 -0.06156092 1.6283377
C -0.06757317 -0.665574 -0.37606713
C 0.60322833 0.3069707 0.5514895
O 0.37698922 1.5616231 0.41240135
C -1.1831759 0.11870812 -0.9547638
N 2.1874168 -0.425844 2.4673097
H -0.29052174 -1.5755147 0.21383457
H -1.2350076 0.18382019 -2.037453
H -2.1464927 0.039651923 -0.45578876
H -0.40968016 1.482982 -0.32590875
H 0.6841253 -0.9652623 -1.1233916
