11

C 0.43364845 0.37333451 0.57375980
C -1.01511109 0.12712870 0.69517471
C 1.24712769 -0.08060085 -0.60763634
O -0.51352393 1.41092556 0.35932912
C -1.73448299 -0.58741394 -0.34960808
N -2.30238890 -1.17950290 -1.16381011
H 2.03085183 0.65079963 -0.82380965
H 0.97253582 0.47123687 1.51817059
H 0.62337243 -0.19492267 -1.49789179
H -1.46782727 0.04916677 1.68212449
H 1.72579820 -1.04015157 -0.38580300
