11

N 1.610479 0.20587797 0.78732044
C 0.59538656 -0.11399816 -1.4737651
C 1.6772982 0.11253867 -0.48600078
C -0.63980407 -0.14957227 -0.8089611
C -0.77249634 -0.14409071 0.6685375
N -1.879323 -0.37146103 1.2332466
O 0.35714647 0.12154126 1.3948369
H 2.7002635 0.19254057 -0.8385833
H -0.3025091 0.89495575 -1.3896745
H -1.7823472 -0.36565256 2.248994
H -1.5640938 -0.38267946 -1.3359504
