13

C -0.97476995 -0.75083214 1.9772979
N 0.0359168 -0.6792073 0.9487611
C 0.9774353 0.83924925 -2.0831635
O -1.106439 0.72893083 -0.45108435
C -0.113428436 0.103824124 -0.15222435
O 1.024023 0.07197568 -0.88127244
H -1.1448956 -1.79231 2.2681282
H -1.8961549 -0.33837348 1.5647221
H 0.2030291 0.46125814 -2.7556882
H 1.9624362 0.7227873 -2.5342762
H -0.69093317 -0.17129695 2.8634562
H 0.7803728 1.8923088 -1.8648071
H 0.94340765 -1.0883143 1.1001511
