11

C -1.03188474 0.68536481 0.68934412
C -0.65601229 -0.61181343 0.02105159
C 1.47528743 0.46140141 -0.79249420
O -1.42589794 -1.52079900 -0.15898855
C 0.81149242 -0.78530142 -0.40870114
N 1.97081862 1.45904998 -1.09204073
H -2.04200822 0.61498575 1.09340582
H -0.98419444 1.49901928 -0.04208194
H 0.85129514 -1.50322778 -1.23293122
H 1.35273881 -1.22741714 0.43684617
H -0.32163499 0.92873753 1.48658955
