11

N -0.35342573 1.37973797 1.20930584
C 0.34360624 0.25162137 1.19156342
C -0.51257539 0.44772243 -0.82999273
N -0.85823651 1.48148459 -0.01560975
C 0.28409421 -0.38398330 -0.06998005
N 0.95444410 -1.55219937 -0.46945789
H 0.87195373 -0.07060839 2.07922593
H -0.84582556 0.38772909 -1.85605874
H -1.42806804 2.27719920 -0.24414195
H 0.52155814 -1.98898579 -1.27258527
H 1.02247464 -2.22971770 0.27773110
