11

N 0.92919725 -1.453419 -1.1246331
C -0.6785502 -0.588253 0.8048463
C 0.26225463 -0.49956933 -0.3336009
N -0.6454523 1.454786 0.27151385
C 0.19220884 0.89517224 -0.6276378
N -1.169479 0.5760873 1.144681
H 0.71131206 1.449843 -1.3942342
H -0.94822043 -1.4840251 1.3509654
H -0.8251823 2.436536 0.40577495
H 0.85856533 -2.3501103 -0.6427648
H 1.3133464 -0.4370476 0.14508937
