11

O 0.4429505 -0.90365094 -0.6494151
C -0.949778 -0.68285686 -0.86387336
C 0.6709795 -0.19638135 0.46760106
O -0.28617758 1.9119464 -0.5020765
C 0.14595045 1.166799 0.46859527
N 1.3023285 -0.57196844 1.5130969
H -1.5403193 -1.2626352 -0.1530039
H 1.599666 -1.539601 1.4070121
H -0.64199156 1.2337321 -1.1280894
H -1.1880914 -0.8982039 -1.9067285
H 0.44448286 1.7428206 1.3468816
