11

O 1.6928556 0.4906513 0.20942345
C -1.1025131 0.5752792 0.4480878
C -0.35266963 -0.64973646 0.9118139
C -0.26626348 0.9836617 -0.4774724
C 0.81022996 -0.37811744 -0.11696391
N 0.6623392 -0.961313 -1.2953995
H -2.0283718 1.03071 0.7768141
H 0.031217186 1.7069453 -1.2158412
H -0.8712966 -1.5875847 0.706707
H 0.0018201519 -0.58815056 1.9422451
H 1.4226526 -0.6223455 -1.8894143
