11

O 0.34949255 0.9451389 0.86522895
C -0.62997746 -0.6421939 -0.47042152
C -0.843324 0.3418951 0.61352545
C 1.358182 0.41685838 0.009361882
C 0.6521306 -0.6069197 -0.8282018
N -1.874696 0.6683026 1.2747836
H -1.4188616 -1.265798 -0.87164444
H 1.7831718 1.230712 -0.5888483
H 2.1549277 -0.016597958 0.6230824
H -2.676617 0.12714136 0.96207947
H 1.1455711 -1.1985389 -1.5889459
