11

O 0.66149479 0.89403601 0.72607039
C -0.64701860 0.80790832 0.36490038
C 0.37644089 -1.01227982 -0.55957638
C 1.39211108 -0.20700744 0.19414341
C -0.80782486 -0.41241916 -0.45597179
N -1.47199780 1.69361891 0.74233709
H 2.19275109 0.17205431 -0.45092808
H -1.75422763 -0.72422519 -0.87940879
H 0.61315672 -1.92734181 -1.08764413
H 1.84555175 -0.76577449 1.01968076
H -2.40043730 1.48143118 0.38639733
