11

C -1.40752927 -0.21027408 -0.72245649
C -0.05853451 -0.17767847 -0.15391558
C 0.01565423 0.56107899 1.16244070
O 0.84500636 0.33738470 -1.19333107
C 0.90762649 -1.27311284 -0.43210920
N -2.48440600 -0.30648505 -1.12753385
H -0.59864509 0.03467505 1.89687715
H -0.34891508 1.58849224 1.07087845
H 1.60372377 0.74703889 -0.74503453
H 0.47644838 -1.84442944 -1.27428921
H 1.04957118 0.54330984 1.51847372
