11

C -0.44610704 1.25559156 0.94568167
C 0.60001515 0.33538153 0.35993849
N 0.64725457 -1.11543882 0.83546460
C 0.27225183 -0.86893719 -0.34676783
N -0.22660409 -1.45637030 -1.45324943
H -1.39782724 0.72825929 1.06254723
H -0.13135476 1.61335668 1.93193017
H -0.61443807 2.12879966 0.30649870
H -0.14216279 -0.94805125 -2.31821938
H -0.13781233 -2.46158146 -1.51602673
H 1.57678502 0.78899039 0.19220263
