11

C -0.414259 0.232895 -0.4385068
C -0.7662749 -0.5939962 0.7002074
N -1.3619077 -1.6445817 0.84905463
C 0.70275694 -0.038317062 -1.3718048
N -0.062268913 0.4029109 1.5909027
H 1.4338115 -0.7255396 -0.93768334
H 0.27140552 -0.5212161 -2.2596748
H -1.1029766 1.036079 -0.7058789
H -0.66093546 0.9224228 2.2250242
H 1.1899303 0.8817983 -1.7098883
H 0.7707185 0.04754473 2.058248
