11

C 0.76081907 1.02753881 1.06739883
C 0.07394827 -0.07887445 0.83780454
C -1.63368003 -0.50498213 -0.84336005
O 0.51487166 0.02056892 -1.57431842
C -0.18632676 -0.63473935 -0.54602140
N -2.76925903 -0.42366505 -1.03435700
H 1.45399987 -0.03297476 -1.35450133
H 1.17825951 1.61922326 0.25690948
H 0.92761269 1.38378581 2.08075963
H -0.35184855 -0.66230411 1.65234369
H 0.03160353 -1.71357707 -0.54265842
