11

C -0.17898305 0.8168596 1.4403914
C 0.23395471 0.122040056 -1.8882651
C 0.04442327 -0.60311455 -0.6083013
O 1.3169523 -0.99305636 -0.15319893
C -0.7109786 0.29492226 0.34804645
N 0.3366547 0.6962094 -2.884465
H 1.1906322 -1.4294153 0.6993164
H 0.85687804 0.6347351 1.7143667
H -0.76435345 1.4512961 2.1010456
H -0.57927096 -1.4796953 -0.8406963
H -1.7459093 0.489219 0.07175975
