11

C 1.0039904 -0.70977247 -0.9761784
C -1.4517572 0.83078545 1.4011699
C -0.25563332 0.47184432 0.7075418
O 0.8591756 0.53818625 1.3434585
C -0.24832703 -0.06311246 -0.68306744
N -2.455498 1.1107975 1.9026062
H 1.514774 0.24932419 0.60978156
H 1.3393736 -1.5006185 -0.3108563
H 1.3672307 -0.7483285 -1.9967877
H -1.0308295 -0.8576663 -0.6061387
H -0.6424995 0.67856055 -1.3915297
