11

C 1.2978938 0.63707685 0.5747161
C 0.1020721 -0.29037812 0.4128159
C -0.7480318 0.051029533 -0.7833464
O -0.54547894 0.94706285 -1.5580872
C -1.9291147 -0.83185387 -0.97589177
N -2.8421018 -1.5218393 -1.1177127
H 1.9463643 0.5993793 -0.30525798
H 1.8828636 0.34208077 1.4500777
H 0.9763685 1.6740767 0.7054141
H -0.55281407 -0.26868534 1.2945043
H 0.41197923 -1.3379495 0.3027675
