12

N 1.0462784 0.008094681 1.4339311
C 0.08317137 -0.85848063 1.4023101
C 0.907577 0.825344 0.3194679
C -0.42465943 0.61182237 -1.8385931
N -0.78166246 -0.47111246 0.32040742
C 0.20761904 -0.060284447 -0.71208286
N -0.8969229 1.132709 -2.7551062
H 1.751399 1.4494303 0.042653393
H -0.2918307 -1.4464494 2.2291927
H 0.78031945 -0.9407165 -1.0420232
H -1.6002624 -1.0221989 0.067828044
H -0.7810265 0.77184194 0.53201485
