12

N -1.0484121 1.4405549 -0.08065043
C -0.11390883 1.4631375 0.8926804
C -1.1434416 0.30202687 -0.68994266
C 0.3665752 -1.7320565 -0.8405412
N 0.78284425 0.23902118 0.5496294
C -0.23489736 -0.6972715 -0.0052973577
N 0.84317553 -2.554278 -1.4997969
H 1.4817876 0.44212717 -0.17881659
H -0.7292187 -1.1472645 0.8701865
H 0.4852483 2.366096 0.9780472
H -1.9475048 0.02471486 -1.3597538
H 1.2577525 -0.14680818 1.3642554
