12

N 0.8960576 -1.0906048 -1.4786642
C -0.17555666 -1.098262 -0.7366264
C -0.48060504 -0.14228447 0.2744706
N -1.62251 -0.24667923 1.0653082
C 0.46255377 0.8257309 0.42981946
N 1.5758611 0.77477884 -0.36416897
C 1.8916186 -0.12539786 -1.3440021
H 2.266287 1.5002743 -0.21640421
H -1.9236408 0.61669195 1.4934878
H 0.384644 1.6334169 1.1532072
H -0.8884884 -1.9088769 -0.9064396
H -2.386221 -0.7387877 0.6300121
