12

N -0.68866716 -0.23485712 1.81627387
C -0.13354923 -0.10786788 0.54505904
C -0.63693938 0.70375558 -0.42375533
N 0.04440302 0.79500216 -1.60693475
C 1.19082402 0.15512204 -1.98951308
N 1.66555515 -0.67355989 -0.97520709
C 1.06484696 -0.78398579 0.17631002
H -0.46879476 -1.10101138 2.28139843
H -1.54606807 1.28852367 -0.30865661
H -1.67181402 -0.01262680 1.87512329
H -0.34670300 1.41691466 -2.30344529
H 1.52690639 -1.44540930 0.91334782
