12

N -0.4540595 -0.45319954 1.9123343
C -0.14228198 -0.13662107 0.5973701
C -0.92898625 0.7211585 -0.17590629
N -0.5968762 1.0822731 -1.4116087
C 0.53892106 0.5812126 -1.8920643
N 1.3665398 -0.24668153 -1.2575079
C 1.020143 -0.59762174 -0.023629341
H -1.4274447 -0.38285795 2.164511
H -0.032831937 -1.3007579 2.265258
H -1.8569022 1.1313196 0.2220111
H 0.81785125 0.8741075 -2.901498
H 1.6959276 -1.2723316 0.50073034
