17

C -0.52846610 0.40653016 2.25863778
N -0.13254873 -0.26122948 -1.33474971
C 0.09171431 0.02203265 -0.11290930
O 1.33465347 -0.02312458 0.39608783
N -0.82020940 0.43160072 0.83687362
C 2.36233138 -0.34454264 -0.53081039
C -1.48829546 -0.13401612 -1.82058943
H -0.44567244 -0.60966106 2.66488923
H -1.77580841 0.24121260 0.58846708
H -2.18710956 -0.81760466 -1.31135398
H -1.50166378 -0.39343916 -2.88273699
H 3.28778917 -0.33105479 0.04871928
H 0.40996262 0.92998037 2.45005393
H -1.32882101 0.93531613 2.78264159
H -1.88420691 0.88877291 -1.72351446
H 2.40674050 0.39134603 -1.33954289
H 2.19960996 -1.33211883 -0.97016344
