17

C 0.09430809 -0.04966928 -0.10141203
N -0.50652313 0.93910575 0.6487641
C -0.33141306 1.0412264 2.086145
O 1.1063002 -0.6221395 0.5725055
N -0.19349153 -0.40684646 -1.2901177
C -1.2593771 0.2962889 -1.9681747
C 1.850833 -1.5913516 -0.15197401
H 2.62059 -1.939745 0.53983873
H -2.2335641 0.17463064 -1.4670618
H 1.213145 -2.421875 -0.46566334
H 2.308491 -1.1503507 -1.0428275
H -1.4086086 1.2174826 0.3025401
H -0.75692046 1.9921193 2.417066
H 0.733097 1.0403929 2.3271976
H -1.0639229 1.3749607 -2.0707984
H -0.8109045 0.22333793 2.6390338
H -1.3620392 -0.11756726 -2.975061
