11

N -1.5464004 -0.13277583 0.93691856
C -0.50842106 -0.2963007 1.673435
C -0.9928566 0.076864794 -0.39570358
N 1.4286463 0.0934438 -1.1312917
C 0.49605986 -0.00991119 -0.16456103
N 0.7631271 -0.23633772 1.0883964
H -1.2993966 1.0502505 -0.794585
H -0.5802726 -0.47830275 2.7418668
H -1.350953 -0.6954851 -1.0863132
H 2.394123 0.14257862 -0.840992
H 1.1963441 0.48597556 -2.02717
