11

O 1.37071153 -0.20138782 -2.02169909
C 0.01105034 0.98687972 1.07335019
C 0.83121244 0.98267818 -0.00891922
C 0.71876870 -0.06103201 -1.00918921
N -0.30120539 -0.98102835 -0.67832883
C -1.07511020 -0.88546140 0.43528053
N -0.96482559 0.04872340 1.31648972
H 0.09027528 1.76485086 1.82878935
H 1.58382990 1.74379036 -0.16211845
H -0.43921269 -1.73651991 -1.33500498
H -1.82549413 -1.66149293 0.56134995
