11

O -0.27854297 1.6415732 2.1660616
C -0.21390457 0.8692155 1.2346838
C 0.7530335 1.0190822 0.13487175
C 0.7806954 0.1352304 -0.8727437
N -0.10374534 -0.9202418 -0.87927186
C -0.99420244 -1.0434854 0.15340534
N -1.0870851 -0.24839707 1.1517085
H 1.4339252 1.8604861 0.16825205
H 1.4664065 0.18616107 -1.7129369
H -0.097047694 -1.5970623 -1.6223202
H -1.6595323 -1.9025618 0.07828958
