11

O -1.0218711 0.6693079 0.7652118
C 0.40428376 0.5380533 0.8936874
N 0.7597477 -0.6190916 1.4342735
C 0.22255327 -0.11301801 -0.91386694
C -1.190719 -0.15146135 -0.3655687
O 1.1127222 1.4703393 0.4229583
H 1.7814772 -0.6002402 1.4757135
H 0.8122196 -1.0174323 -1.0069532
H -1.4602963 -1.1768328 -0.094592765
H 0.49732432 0.7223867 -1.5470601
H -1.9174418 0.27798918 -1.0638025
