11

O -2.011943 0.9893354 1.3797239
C -1.0809268 0.6137435 0.72463834
N -0.9745757 -0.54963356 -0.014552335
C 0.40622663 -0.8070743 -0.35920784
C 0.9415319 0.6299409 -0.3239216
O 0.08052923 1.3121176 0.5875508
H -1.6057727 -1.2947714 0.2373544
H 0.90483505 -1.4458786 0.38130605
H 0.5105291 -1.262581 -1.3458422
H 0.86207455 1.1091955 -1.3048922
H 1.9674922 0.7056056 0.037842523
