11

O 0.5896698 1.1105605 0.13063516
C -0.44753182 -0.89086044 0.59136206
N -0.13451552 1.394041 -2.023321
C 0.69361275 0.017011218 1.0354327
C -0.061653133 0.6940644 -0.98235077
O -0.58918643 -0.55018795 -0.7867363
H 1.6716521 -0.4629661 0.9176911
H -0.7034733 0.9210553 -2.7208698
H -1.3825744 -0.67064506 1.1172855
H 0.5844645 0.3943495 2.0537546
H -0.22046442 -1.9564223 0.66711664
