11

C -0.89467091 1.30406577 -1.46612278
C -0.33342929 -0.48339007 0.25886221
N -1.09122305 1.88076603 -0.38064976
C 0.78884762 -1.14081340 1.02757384
C -0.00483567 0.80996210 -0.42772512
O -1.44754593 -0.95249428 0.17461663
H 0.44677426 -2.09037147 1.44150656
H 1.65221430 -1.31002739 0.37771008
H -1.25647911 1.29778851 -2.48574312
H 1.11898232 -0.48528360 1.84088386
H 1.02136560 1.16979761 -0.36091257
