11

C -0.5329639 -1.0779594 -1.4119744
C -0.01842887 -0.24991898 -0.2861385
N 1.159444 -0.2627176 0.2474039
C 1.09179 0.69097656 1.2538847
C -0.14179437 1.2331461 1.2673641
O -0.87074447 0.63824743 0.28037652
H -1.4249259 -1.6336381 -1.1103677
H 0.24220349 -1.7822534 -1.7157558
H -0.80242234 -0.4537114 -2.2700667
H 1.9381808 0.9108595 1.8887796
H -0.6403383 1.9869691 1.8564941
