11

C 0.03900821 0.6083796 -0.08742287
C -0.0977737 -0.8046781 -0.31630403
N 1.0248008 -0.6550951 -2.2011473
C 0.7241657 -1.468846 -1.3120267
C -0.46247604 1.1079767 1.260955
O 0.578005 1.3736976 -0.87590957
H -1.0011802 0.34800354 1.8337672
H -0.9215069 -1.3686725 0.11568438
H 0.8278569 -2.557099 -1.3602202
H 0.40044346 1.4444804 1.8441803
H -1.111343 1.9718531 1.0984437
