11

N -0.06706555 -1.637741 0.13010062
C 0.20577177 -0.57385784 0.9326326
O 0.7832937 -0.6299022 1.9987892
C -0.2464064 0.7462358 0.35948718
C 0.25551543 1.1940715 -0.94264495
O -1.068189 0.69516987 -0.80182785
H -0.7249163 -1.5259761 -0.62492836
H 0.12573266 -2.5612025 0.4878584
H -0.5270262 1.4845475 1.1076345
H 0.33152786 2.2615466 -1.1474112
H 0.931762 0.5471084 -1.4996905
