12

O 0.72387445 0.989546 -1.223901
C 0.62933356 0.8571937 0.054065183
C -0.025341561 -1.3299295 -0.1122881
O 0.061977506 -1.2362633 -1.3919389
C -0.7946737 0.67673266 0.6400861
O -1.0629033 -0.71960974 0.5712562
H 0.94295484 -0.44443694 0.33643216
H 0.23782058 -2.2931352 0.33036494
H -1.5089815 1.2423593 0.036422227
H -0.85612273 0.9830479 1.6883359
H 1.3619794 1.3943372 0.6732371
H 0.29008248 -0.11984242 -1.6020714
