12

O 0.59353710 0.54964388 -1.14457632
C -0.71034505 0.16502057 -0.64397570
C 1.49277103 1.03061721 -0.29705113
O 1.38579884 1.10425072 0.90563918
C -0.70308109 -1.04849817 0.28215083
O -0.57501728 -0.73498257 1.63879836
H -1.16398591 1.02049312 -0.13492949
H 2.37274441 1.36880295 -0.85851213
H -1.25754158 -0.05488448 -1.56315867
H 0.07462339 -1.74626765 -0.07084724
H 0.16072497 -0.10333877 1.72260518
H -1.67022883 -1.55085693 0.16385696
