12

O -0.666544 1.4872932 -0.8093305
C 0.1854228 0.4155992 -1.1334516
C 0.4824238 -0.40378466 0.120550714
O 1.0395184 0.4499891 1.084779
C -0.790927 -1.0121485 0.6672216
O -1.1330286 -0.8176449 1.8086772
H -0.2574077 1.914936 -0.040936474
H 1.1386999 0.75592804 -1.5610552
H -0.32414284 -0.19924496 -1.8828132
H 1.1686729 -1.2285693 -0.13547733
H 0.53453416 0.29263195 1.9010644
H -1.3772218 -1.6549853 -0.01922879
