11

O 0.34266050 -0.09425310 2.77519581
C 0.00466904 -0.08984478 -2.08570732
N 0.56061248 -0.28672707 0.50031465
C -0.91890207 0.46136043 -1.17619144
C -0.58503310 0.34038875 0.15616699
C 0.96984307 -0.46705761 1.81711439
H -0.35160873 0.06244495 -3.11966279
H -1.86055217 0.96545266 -1.40361355
H 1.08097020 -0.60583646 -0.32815021
H 1.93405150 -0.99925626 1.87686937
H -1.17671095 0.71332854 0.98766407
