11

O 2.6802015 -0.5013221 -0.34446874
C -0.0820538 -0.57719165 0.12415028
N 0.71508425 0.5417601 0.18549468
C -2.615646 -0.055219684 0.54034233
C 2.0806358 0.49910393 -0.039453324
C -1.4675797 -0.48339644 0.107197024
H 2.5611355 1.4829865 0.09911311
H -3.4345636 0.110148676 -0.15836783
H 0.2791618 1.4131163 0.4584531
H 0.45404837 -1.5100192 -0.008366439
H -1.1704243 -0.9199665 -0.9640942
