11

O 1.7529217 -0.91658145 -1.8304
C 0.73215103 -0.26707658 -1.916021
N -0.033286635 0.085111365 -0.8544644
C 0.33969793 -0.32246423 0.49020594
C -0.5784454 0.25234315 1.4714799
C -1.342714 0.72554344 2.2660258
H 0.32582995 0.10175786 -2.8771002
H -0.88009024 0.6145218 -0.9964341
H 0.32959214 -1.4166001 0.56525254
H 1.3661188 0.0024163963 0.6954061
H -2.0117755 1.1410284 2.9860494
