11

N 0.28147169 -0.72281632 -0.49144932
C 0.27536113 -0.98991946 0.92349508
N -0.72843574 1.05132220 -1.70121867
N -0.83788077 0.92956937 0.67085486
C -0.38008657 0.35875256 -0.60684733
N -0.43865089 0.17517384 1.56025059
O 1.50946808 -1.20128860 1.48842676
H 2.10149957 -0.50589561 1.16251152
H -0.32162486 0.80217565 -2.58826532
H -1.12384617 1.96994326 -1.58137096
H -0.33727548 -1.86701688 1.16361297
