11

N 1.8496326 -0.11261768 -1.4375795
C 0.5990197 -0.12863475 -0.8683917
N -0.5437908 -0.23712032 -1.4452913
N -1.5010768 -0.06808606 -0.43381977
C -0.83717316 0.09010215 0.6546645
N -1.3006536 0.19908307 1.9408243
O 0.5168334 0.072095506 0.4771003
H 2.5435627 -0.6511629 -0.93853444
H 1.8028812 -0.35865867 -2.4169114
H -0.82388496 0.8889865 2.5038278
H -2.3053503 0.30601317 1.9641114
