10

C -0.7716856 -0.8458363 0.1061346
C -0.93138474 1.09486 -0.06901753
N -1.4881823 0.19821207 0.6611714
C 1.1627054 -0.085527964 -0.12529376
C 0.5941072 -1.0299722 0.6236008
N 0.08410745 0.52791816 -0.90609556
H -1.22165 2.138708 -0.1508274
H 2.1874466 0.22153953 -0.30100954
H -0.5700315 -0.4763732 -1.1872874
H 0.9545676 -1.743528 1.3486245
