10

C 1.2815338 -0.073933885 -0.5776674
C 0.69678926 0.6654979 0.3973053
N -0.7445771 -1.2457649 -0.95703304
C 0.5902481 -1.1036704 -1.339177
C -1.2800397 -0.52276117 -0.024397608
N -0.6219602 0.4287238 0.6737216
H 1.174066 1.4389706 0.99159867
H -2.3250847 -0.6536102 0.2540382
H 2.3292048 0.11053231 -0.8078036
H -1.1001804 0.9560158 1.3894149
