10

C -1.2211506 -0.38152462 -0.34922433
C -0.09247707 -0.8110603 -1.043606
N 1.135581 -0.43196702 -0.70050925
C 1.2216686 0.38220024 0.3496462
C 0.09293138 0.81064916 1.0446483
N -1.1363825 0.43276432 0.69934976
H -2.2164464 -0.7038395 -0.6465124
H -0.18413596 -1.4773533 -1.898877
H 2.2173676 0.7040816 0.645145
H 0.18304393 1.4760492 1.8999395
