11

O 1.7559066 0.78889394 -1.4522523
C -1.0739399 -0.04441819 0.5696259
N 0.99756515 -0.78330386 0.053125918
C -0.17312907 -1.0010359 0.8006262
C -0.48869547 0.9294821 -0.4164875
C 0.9006478 0.3583355 -0.71338874
H -1.0582191 1.0101956 -1.3481461
H 1.8174098 -1.3691359 0.06287416
H -2.056979 0.029551113 1.0112005
H -0.23324917 -1.8636825 1.4511888
H -0.3873176 1.945118 -0.018367117
