11

C 0.5098469 -0.9634505 1.5002027
C 0.16730599 -0.122890994 0.3198403
N 0.63585174 1.0341716 -0.00964306
C -0.032311216 1.3585595 -1.1818103
C -0.8789116 0.3593069 -1.4987315
O -0.763135 -0.6065321 -0.5412836
H -0.38584065 -1.1964179 2.086212
H 1.2143598 -0.4153716 2.128863
H 0.9657973 -1.9096459 1.1963407
H 0.14928813 2.2871506 -1.7046427
H -1.5822513 0.17512017 -2.2953475
