11

C 0.78311621 -0.37719166 0.79381534
C -0.27603455 0.09596310 -0.19142711
N -0.37003184 -1.01085825 -0.85198815
C -0.94852878 1.39798187 -0.43846140
C 0.64365588 -1.61562170 0.06096090
O 1.83900567 -0.88200217 -0.04863476
H -1.50207263 1.72007276 0.44867054
H 0.99753282 -0.13756868 1.82820927
H 0.66877093 -2.66168642 0.34251471
H -0.20026996 2.16545101 -0.66192261
H -1.63514365 1.30545990 -1.28173668
