11

O 0.34233898 1.4697602 1.0444539
C -0.7565726 -0.7435064 -1.403668
O 0.56519437 -1.4270874 -0.40171766
C 0.89886725 1.0372974 -0.12946893
C -0.6102191 0.37321618 1.0763997
C -0.073797435 -0.12284495 -0.259954
O 1.807423 1.5103273 -0.7326281
H 0.037778173 -2.0722091 0.09510756
H -0.13686752 -0.48840368 -2.2812245
H -0.4321824 -0.26603544 1.9448606
H -1.6419628 0.7294858 1.0478394
