11

O -1.7981308 0.6525392 -1.646149
C -1.1583194 0.026346443 -0.8661284
O -1.2145014 -1.3170451 -0.6064233
C -0.22047645 -1.2391133 0.45743108
C -0.044555485 0.23547864 0.13881412
C 1.1283877 1.0996298 0.0646598
O 0.08858598 1.3004328 1.024283
H 0.6270551 -1.8939416 0.2525544
H -0.66795063 -1.4580953 1.4284178
H 1.1883825 1.8526793 -0.71788716
H 2.0715225 0.74108917 0.4704277
