11

C 0.02194999 -0.8255469 -0.8407959
N -0.5007387 0.3697007 -0.089897364
C -0.25355935 -1.6774039 0.28188086
C 0.38813746 1.4499065 0.31564367
N 0.5200988 -1.0203489 -1.9379523
H 1.3753815 1.0227203 0.51769197
H -1.133592 -2.3183553 0.32892975
H 0.4998396 2.2020085 -0.47440955
H 0.48859394 -1.8063159 1.0639588
H 0.016255938 1.9324353 1.2249563
H -1.4223672 0.6711999 -0.39000627
