11

C 1.22155818 0.17529156 -1.28920765
N 0.46105675 -0.58021907 -0.30936566
C -0.40108955 0.05444719 0.51083011
C -1.43399937 -0.01061581 1.50323723
N -0.72050662 1.20445198 0.91879009
H 1.50613811 1.13026555 -0.84117046
H 2.13097476 -0.37234033 -1.54888870
H -1.20284543 -0.26379804 2.53928802
H 0.64903495 0.37334586 -2.20392693
H 0.26576173 -1.54651918 -0.49677875
H -2.47608299 -0.16430947 1.21719287
