12

C -1.1225111 -1.0126071 -1.7002699
N -1.001729 -0.58582485 -0.3206119
C 0.05467314 0.021566749 0.009496699
N 0.24666251 0.46718857 1.3114634
C 1.3548768 1.1469052 1.7472612
O 1.5033251 1.5388027 2.879945
H -2.001272 -0.5356269 -2.148569
H -0.2444699 -0.78140515 -2.3219519
H -1.296268 -2.0934355 -1.7288823
H 0.8918033 0.25041333 -0.66197866
H -0.48861313 0.28528064 1.9855633
H 2.1035223 1.2987424 0.94853413
