12

C 1.2390447 -1.5847852 -1.2312968
N -0.4652213 1.1638972 0.43234363
C -0.35191363 0.09729666 -0.4841494
N 0.79976773 -0.58029914 -0.49114546
C -1.2043003 1.0734901 1.5842085
O -1.4413359 2.0149221 2.3109062
H -0.21527928 2.1095603 0.16545926
H 2.2012563 -2.0125036 -0.99458677
H 1.4430866 -0.26865906 0.23208046
H -1.0774893 -0.077618785 -1.2664601
H 0.61495686 -1.9704816 -2.0261385
H -1.5425725 0.03518087 1.768779
