12

C -0.61757312 -1.34295872 -1.83791538
N -0.01542794 -0.58947009 -0.93267697
C -0.46159431 0.37403285 -0.12141092
N 0.48897039 1.01241430 0.70280429
C 0.59253165 0.75724072 2.04644315
O 1.29310772 1.39485140 2.80355307
H -1.47315261 0.73893959 -0.23392037
H -0.04229337 -2.11452112 -2.32635219
H -1.66922239 -1.19073633 -2.04011039
H 0.97341027 -0.78682122 -0.80120082
H -0.03198810 -0.10745889 2.34452045
H 0.96323182 1.85448760 0.39626616
