10

O -0.63634630 -1.05833289 -1.72348010
C 0.56094262 0.82445191 0.67442472
C -0.14981419 -0.29862827 -0.74199244
C -0.38161020 -0.40624049 0.73113926
N 0.63097638 0.71447506 -0.81073299
H 1.53684528 0.68798176 1.14849723
H 0.02091454 -1.29853594 1.21611196
H -0.29481820 -0.71529607 -2.56196160
H -1.40474785 -0.21874361 1.06674431
H 0.11765813 1.76886852 1.00124979
