11

N 1.3690097 -0.66428137 2.5923407
C 0.66173506 -0.67328495 1.6803225
C -0.24238603 -0.65469575 0.5151145
C -0.5334074 0.74181515 -0.07352907
C 0.24148768 0.2205997 -1.2912222
O 0.40363383 -1.0767355 -0.68636036
H -1.1184819 -1.2697647 0.7447459
H -1.5941764 0.93212354 -0.24236839
H -0.08304251 1.5793097 0.45976713
H -0.3155191 0.16454197 -2.2291672
H 1.2111468 0.7003725 -1.4696438
