11

N 0.5660919 -2.1421716 1.0013463
C 0.65254766 -0.26360154 -0.74773717
C 0.81867564 -1.3481703 0.14667377
C -0.23326488 1.2878103 0.30556676
C -0.8491536 -0.09551325 0.0021553985
O 1.0496224 0.9980781 -0.318836
H -1.5891935 -0.05724167 -0.80736977
H -0.42708322 -1.58462 1.0438046
H 0.78513587 -0.47389778 -1.8106585
H -0.07859869 1.5227083 1.3672184
H -0.69477934 2.1566188 -0.18216407
