10

N 0.90014625 1.9263167 -1.84712
C 0.35208422 1.0787284 -1.2834393
C -0.3259948 0.021470346 -0.5735755
C -0.48284054 0.12127356 0.9276869
C 0.46657392 -0.87690383 0.35007635
H -1.1416175 -0.4339441 -1.128568
H -1.422556 -0.22754316 1.3437591
H -0.0690054 0.99914116 1.4123161
H 0.19313012 -1.9272226 0.35994276
H 1.5300797 -0.6813168 0.43892175
