10

N 1.1437244 -1.3435832 1.4537022
C 1.1896689 -0.8361132 0.36984837
C 0.64478636 0.30121034 -0.26465812
C -0.6811576 0.60540426 -0.967609
C -0.7376218 0.010877028 0.3972161
H -0.7656768 1.6786447 -1.131147
H -1.0061302 0.0061471164 -1.8161216
H -1.022407 -1.0292882 0.22481768
H 1.1785994 1.1957886 0.05439702
H 0.0562147 -0.58908725 1.6795543
