9

C -0.5880181 0.50254697 -0.9763062
C 0.9296216 -0.58250713 0.94058186
C -0.5143223 -0.08249158 0.3899841
C -0.89068794 -0.35343772 1.5772059
O 1.83116 0.19803151 0.8543769
H 1.0506594 -1.6489029 1.1668714
H 0.07800223 1.36954 -1.0395095
H -1.6124996 0.8233719 -1.1805928
H -0.28391525 -0.22615111 -1.7326115
