12

C 0.5565546 -0.649091 -1.8513132
C -0.08190373 -0.7409756 -0.4811796
O -0.60987407 -1.7434293 -0.050577816
N 0.008971309 0.4218909 0.26997957
C -0.47402874 0.54057556 1.5637767
N -0.34234282 1.6411417 2.1805353
H 0.13461892 -1.4268112 -2.4880004
H 0.4009489 0.3315122 -2.3126357
H 1.6358224 -0.817963 -1.7597425
H 0.45075735 1.2461817 -0.11533601
H -0.939137 -0.375305 1.9327255
H -0.7403872 1.572273 3.1117678
