13

N 0.9575433 3.0092232 0.434398
C -0.16132511 0.73615795 -0.06523151
C 0.47130573 1.974474 0.21490872
N -0.18669337 -1.5702251 -0.769686
C 0.66426015 -0.38709718 -0.6265044
N -0.91957873 0.22669066 1.2334878
H 1.4800158 -0.6773958 0.060180545
H -0.5350833 0.5455467 2.1226256
H -0.9632549 -0.7851346 1.112523
H 1.1318201 -0.04582536 -1.5609653
H 0.37450618 -2.3822987 -1.0124851
H -0.84032035 -1.4155142 -1.5311118
H -1.4731954 0.77139866 0.38786027
