9

O -1.9914085 0.20475155 -0.50399595
C 2.6456573 1.2084874 0.60032386
C -0.88233984 -0.65536696 -0.5937746
C 0.3752469 -0.029747102 -0.16018996
C 1.3800675 0.5189435 0.2288318
N 2.3541188 0.7602884 1.682498
H -1.0250868 -1.5820359 -0.015101495
H -2.0635934 0.5148496 0.40690717
H -0.7926621 -0.9401702 -1.6454988
