10

O -0.764586 -1.6657214 0.8981277
C -0.109987214 1.3090075 -0.20514402
N -1.0092537 0.40489626 -0.22814588
C 1.2320879 0.69895804 -0.0017047919
C -0.27383694 -0.86048573 -0.11781263
N 1.1349691 -0.5706033 0.103460774
H -0.33152565 -1.3420726 -1.1095803
H -0.33250684 2.3678393 -0.30425268
H 2.1796007 1.2252274 0.06782578
H -1.7249612 -1.5670453 0.8972259
