12

N -1.23707029 -1.46381552 -0.12471830
C -0.11878193 -0.62600999 -0.01994753
N 0.61214566 -0.71658868 1.27575533
C 0.71288764 0.56162230 1.32626657
C 0.03069914 0.94215920 0.03012118
C 0.89284598 0.62077749 -1.17392334
N 0.79079212 -0.65753524 -1.20167211
H -0.75920594 1.69524333 -0.00948897
H -1.71685253 -1.36673719 -1.01086873
H -1.87678608 -1.36453479 0.65398718
H 1.19338132 1.14141165 2.11050572
H 1.47594457 1.23400755 -1.85601701
