11

C -0.88632815 1.43797789 1.31039235
N -1.16523157 0.19179083 0.90863845
C -0.26899372 -1.54226063 -0.55262897
N -0.19059536 -0.22062517 0.03035782
C 0.70965665 0.72177792 -0.14785716
N 0.31056520 1.73854270 0.62030371
H 0.79458360 2.61881588 0.69842910
H 1.57879514 0.66208554 -0.78691181
H -1.19263889 -1.62000513 -1.12829389
H -0.28132169 -2.28014232 0.24990986
H 0.59150886 -1.70795807 -1.20233934
