11

C -0.81409264 1.5799867 1.1880158
N -1.0788323 0.28303236 0.9880211
C 0.6616177 0.7138334 -0.31486776
N -0.17749196 -0.2195157 0.07894982
C -0.25724643 -1.6106302 -0.3098687
N 0.2970252 1.8154501 0.34594136
H 1.4666102 0.5905952 -1.0249066
H -0.16143125 -2.2307286 0.58175194
H 0.5425055 -1.8405277 -1.0152678
H -1.228225 -1.7926394 -0.7731483
H 0.7495612 2.7111442 0.25537917
