12

N -0.758804 1.6223617 -0.8532981
C 1.0204116 0.032816827 -0.54995483
C -0.7916167 -1.1413347 1.4684119
N 1.474868 -1.0574234 -0.09221726
C -0.37249404 0.4748489 -0.2103212
O -1.3758204 -2.1936185 1.5098321
N -1.1556803 -0.09047136 0.62220585
H 2.436255 -1.2108454 -0.39594704
H 1.5925277 0.72073585 -1.1892645
H -0.34298795 1.8361931 -1.7468693
H 0.0048778104 -0.8650892 2.1859803
H -1.7315369 1.8718259 -0.74855775
