12

C 1.2530681 -0.5371305 0.8883165
C -0.566099 0.21454658 -0.60548055
O 0.22566962 -0.26128796 -1.5996436
N 0.0066600274 -0.0010707679 0.63649637
C -1.7475033 0.80691594 -0.790852
N 1.6442398 -0.6657911 2.090407
H -2.3165574 1.1852311 0.049717896
H -2.1647255 0.92228496 -1.7854139
H 2.5735881 -1.0732292 2.1195982
H -0.524271 0.2703161 1.4494967
H -0.19243182 -0.047769383 -2.443088
H 1.8083626 -0.81301576 -0.009554249
