12

C -0.47628569 0.03051084 -2.02547504
C 0.01101988 -0.25671442 -0.81675047
O 0.89862893 -1.24958770 -0.55592671
N -0.33495073 0.42132471 0.33980377
C 0.18877824 0.22209890 1.60088407
N -0.22784316 0.93367030 2.56767421
H -0.19494161 -0.55416195 -2.89469364
H 1.14250217 -1.66067481 -1.39457484
H 0.94398470 -0.56396687 1.64987739
H -1.16523197 0.85484157 -2.16452379
H -1.02939545 1.14844583 0.26530865
H 0.24373466 0.67421365 3.42839647
