11

C 0.47832316 1.6502798 0.35932285
C -0.14747761 -1.5147033 0.2893157
N -0.59232575 -0.5183474 1.3407667
C -0.4691438 -1.2557629 -1.0328807
C -0.15353474 0.4025997 0.7083707
O -0.79263616 -0.12091872 -1.451208
H -0.21092471 2.4599884 0.6195966
H -0.45888862 -2.1227596 -1.712814
H 1.4241314 1.773859 0.8932927
H 0.61694896 1.6459912 -0.7246689
H 0.30552775 -2.4002259 0.7109065
