11

C -0.5308986 -1.0792891 -1.4127562
C -0.01841863 -0.25128537 -0.28634882
N 1.1575564 -0.2608253 0.24963686
C 1.0902834 0.6943651 1.2551299
C -0.1433858 1.2334675 1.2672162
O -0.8708187 0.6368779 0.27961496
H -1.4228977 -1.6365857 -1.1114047
H 0.24571285 -1.7829791 -1.7137384
H -0.79924095 -0.45642987 -2.2712724
H 1.936257 0.91561294 1.8900943
H -0.64414936 1.9870709 1.8538282
