11

C -0.48894182 0.22241724 -0.4098645
C -1.7558333 0.1862401 0.34550762
N 0.1556686 0.87482876 -1.257666
C 1.9089972 -0.12718749 0.31203848
C 0.8126383 -0.36994857 -0.66758764
O 1.9012842 0.7961711 1.0916864
H 0.92380995 -1.2216185 -1.3373644
H 2.7363162 -0.86613554 0.29220104
H -2.409626 1.0061692 0.04144281
H -1.5280075 0.2701848 1.4115597
H -2.2563057 -0.7711212 0.17804667
