9

O -2.40952801 0.92096395 0.94553550
C -1.51964276 0.13182312 0.80946033
C -0.52280631 0.25397552 -0.35021769
N 0.47983873 -0.75601491 -0.24579439
C 1.81986658 -0.31052579 -0.30657236
N 1.50256782 -0.60965515 -1.46517195
O -0.61513158 1.04789410 -1.23996111
H -1.33888304 -0.71504479 1.49847988
H 2.60371862 0.03658391 0.35424186
