10

O 0.44395358 -1.01764664 -0.18511041
C -0.43259677 -0.29010471 0.65535126
C 0.38861096 -0.69016808 -1.49233993
O -0.38112350 0.09206825 -1.97894152
C 0.12980312 1.07265725 0.99936790
O 1.18026238 1.49410135 0.59239912
H -1.41640150 -0.17188660 0.18746866
H -0.54304851 -0.87802797 1.57206824
H 1.14467816 -1.27465232 -2.03443353
H -0.51413802 1.66365951 1.68417028
