11

C 1.382017 0.008112281 0.021785295
N 0.2404348 -0.62390476 -0.6307246
C -0.99828374 -0.50156564 0.10978332
C -1.431262 0.9006235 0.33786848
N -1.7117372 2.01328 0.4708562
H 1.2476742 1.0841966 0.20998979
H 2.268261 -0.13361828 -0.60346484
H 1.5679349 -0.48907703 0.9809898
H 0.11715772 -0.24360254 -1.5617968
H -1.798045 -1.0266268 -0.42138386
H -0.8841516 -0.9878165 1.0860974
