11

C 0.94555999 0.26140306 -0.36294918
N 0.02335888 -0.48672465 -1.24070057
C -1.00674756 -0.58027582 -0.18314460
C -0.19805998 0.40795358 0.63449421
N -0.47470118 1.05888861 1.67653888
H 1.34236888 1.18614314 -0.80011273
H 1.78323503 -0.32073727 0.04943230
H 0.29915569 1.67322505 1.93900609
H 0.38052664 -1.38687179 -1.54045329
H -2.00794362 -0.25550687 -0.48676913
H -1.08675269 -1.55749621 0.31465819
