10

N -0.75456203 -2.50401704 -1.29702384
C -0.80854481 -1.45263573 -0.82456152
O 0.63731366 0.56225651 2.03949838
C -0.86452392 -0.09762686 -0.25365378
C 1.09894652 0.76178239 0.94071572
N 0.43626361 0.53760423 -0.23561108
H -1.58424831 0.49680808 -0.82540065
H -1.20323861 -0.15207944 0.78379421
H 2.10967595 1.17724766 0.77576054
H 0.93291836 0.67066049 -1.10351769
