11

O -0.51021457 3.011603 -0.56587684
C 0.4663474 -2.354836 1.0836469
C -0.2545659 0.65601766 -0.6358529
C 0.18580389 2.0653603 -0.3061741
N 0.7491665 -0.28713128 -0.3492609
C 0.5636016 -1.2838826 0.34642747
N -1.3501028 0.38220906 -1.1920327
H 0.8026069 -2.3363914 2.1149786
H -1.8778396 1.245775 -1.3456681
H 1.1732792 2.1677172 0.17951307
H 0.051917028 -3.2664416 0.6702992
