11

O -1.6265371 1.6639906 -1.8181337
C 1.7076651 -0.33551306 0.95769054
C -0.4103578 -0.67269045 0.40909982
C -1.8997974 0.6850548 -1.1634285
N 0.4702172 -0.95410764 1.2716285
C -0.9067102 -0.28986216 -0.74596906
N 1.8192952 0.47796902 -0.012657547
H -2.9380805 0.38922802 -0.9084664
H -1.4885517 -1.1597658 0.44961357
H 2.502913 -0.6339336 1.6419959
H 2.7699442 0.82963026 -0.08137333
