12

N 1.0290445 0.91599977 -2.6073396
C 0.4722107 -0.6415072 1.256311
C -0.4751718 0.65644616 -0.45572758
C -1.0168884 -0.7650979 -0.36675307
N 0.27120855 0.732305 0.7818673
C 0.3555307 0.807616 -1.676975
N -0.50151765 -1.4648204 0.55207264
H -1.2748123 1.4036171 -0.50239986
H 0.30176464 -0.7154284 2.3347616
H 1.4737998 -1.0408306 1.0411791
H 1.1242642 1.2672398 0.69991523
H -1.7594334 -1.1555392 -1.0569118
