12

N -0.94228595 0.821513 0.010638996
C -0.04515189 -0.604249 1.8614292
C -0.52709883 -0.5102692 0.47687912
C 0.20265338 0.9211555 -0.9629388
N 1.4354557 0.5658174 -0.45570898
C 0.6782594 -0.5970693 -0.53733736
N 0.34090108 -0.6889598 2.9450889
H -1.313832 -1.2533844 0.31363535
H 1.0654327 -1.5233021 -0.9694868
H -0.82530874 1.5258331 0.73831016
H -0.21376011 -0.2251834 -1.5803922
H 0.14473529 1.5680981 -1.8401176
