12

N -0.43315566 -1.6627576 2.3293824
C -0.34402385 -0.76933557 1.605318
C -0.25328827 0.36184627 0.6618392
C 1.1514379 0.47998548 -0.0068772864
N 1.0055028 -0.0782127 -1.3493409
C -0.24034627 -0.24531974 -1.536734
N -1.0992894 0.15011911 -0.5118069
H -0.5380436 1.2758211 1.190842
H 1.4511864 1.5296478 -0.08142626
H 1.9252139 -0.05433933 0.55008143
H -0.66519195 -0.6224986 -2.463298
H -1.9600021 -0.36495605 -0.38797978
