12

O 0.03193021 -1.6368672 0.5915876
C 0.1150096 -0.93377286 -0.57091504
C -0.7386566 0.78585917 -0.59203434
O -1.1734693 0.9755427 0.7078917
C 0.73727036 0.42502093 -0.4619917
O 1.3319217 0.6447884 0.77966404
H 1.3743591 0.7482165 -1.2852435
H -2.13259 1.078055 0.6708517
H 0.25137424 -1.5048007 -1.4868171
H 0.6460918 1.0312771 1.3494595
H -1.0608789 -0.4438841 -0.9166564
H 0.6176375 -1.1694353 1.2142036
