12

O 0.51442057 1.97757 -0.3799589
C 0.3745699 0.87554955 -1.08381
C 0.59792775 -0.28411552 -0.15602146
O -1.7033362 -0.5137444 0.4813224
C -0.6571044 -1.1685061 -0.19525392
O 0.85441476 0.00610419 1.2068715
H 1.4339985 -0.8588149 -0.5879292
H 0.9234202 0.96700764 1.2912064
H -0.4122237 -2.13645 0.2656789
H 0.37898654 2.740364 -0.9584264
H -1.3324218 -0.2752599 1.3435811
H -0.9726523 -1.3297046 -1.2272607
