9

O -1.613742 0.330641 0.96273607
C -0.4016572 -0.47873038 -0.98630553
C -0.51256627 0.03239906 0.25721282
O 0.93021697 -0.5491637 -1.2977965
C 1.6613156 -0.18218772 -0.21356814
N 0.77184033 0.18411031 0.774777
H -1.344261 0.5158081 1.8726712
H 1.626249 0.98715645 0.33867353
H -1.1173953 -0.8400331 -1.7084005
