10

O 0.061152037 -1.4502611 1.6630208
C 0.03736241 -0.47781166 0.73759145
N 0.13373692 0.8004894 0.95202017
C 0.055247243 1.3642412 -0.31069088
C -0.08802452 0.40679342 -1.264577
N -0.09862576 -0.79847366 -0.5688795
H 0.16157524 -0.9985025 2.51343
H 0.108718686 2.4358904 -0.44441146
H -0.1813619 0.44615552 -2.3382854
H -0.18978032 -1.7285212 -0.9392181
