10

O 2.0429714 0.98148173 0.4983877
C 0.84710544 0.36614868 0.45183763
N 0.28373215 -0.17756048 1.4476595
C -1.6836603 -1.1669215 -0.48165852
C -0.7958776 -0.26760775 -0.8702802
N 0.2864383 0.39747417 -0.8406573
H -2.6963754 -0.85678595 -0.21628955
H -1.408763 -0.450231 -1.8628719
H 0.86905026 -0.10294841 2.2729993
H 2.2553787 1.2769504 -0.39912638
