10

C 0.8191511 -0.09493081 0.7831249
C 0.4475448 1.1363573 0.26137456
N -0.5109809 1.2601492 -0.65706307
C -1.0933541 0.12726435 -1.0435394
N -0.82346493 -1.1056463 -0.6180257
C 0.13851097 -1.205192 0.2978121
H 1.5999726 -0.18510392 1.529433
H 0.93092036 2.0561843 0.5862612
H -1.878367 0.21835601 -1.7921692
H 0.3700669 -2.2074382 0.6527918
