12

N -0.43945134 -1.6676166 2.3245664
C -0.34534693 -0.7711712 1.603839
C -0.25223216 0.36236095 0.6624261
C 1.1515739 0.4806595 -0.0058610435
N 1.0050762 -0.078054994 -1.350062
C -0.23943073 -0.2425509 -1.5363162
N -1.0988429 0.15227765 -0.5128261
H -0.5352174 1.2749406 1.1933813
H 1.4489549 1.5315989 -0.08136854
H 1.9266943 -0.052462555 0.5500858
H -0.6644371 -0.6243022 -2.462575
H -1.957341 -0.36567876 -0.3852898
