12

N -1.0897292 -1.1090515 0.32176065
C -1.3836837 -0.22648361 -0.5942225
C 0.28124255 -0.9463306 0.7434098
C 0.8722133 0.12218448 -0.1705309
N 1.551705 2.2713554 1.1990763
C 1.2687196 1.3260583 0.60106236
N -0.27605772 0.4063465 -1.054406
H 0.82223165 -1.8683021 0.93150425
H 1.7439897 -0.19001687 -0.76767266
H -0.30960795 1.2503271 -1.6063384
H -2.3715649 -0.05105982 -0.99755985
H -1.1094583 -0.9850269 1.393917
