12

N -1.5852929 -0.43593696 -0.3550421
C -0.279285 -0.91463816 -0.8026227
C 0.7676912 0.074769944 -0.20462802
C 1.436136 -0.458981 0.99762934
N -0.09030443 1.2123336 0.12647815
C -1.3913581 0.711923 0.151769
N 1.9523705 -0.85464776 1.9508787
H 1.53304 0.35630304 -0.93180585
H -0.24189053 -0.89159656 -1.8969548
H 0.1997023 1.8111106 0.88781476
H -0.11297325 -1.9441395 -0.47785583
H -2.187836 1.3334998 0.55433935
