9

O -0.9782454 1.7548176 -0.69634235
C -0.67839575 0.7369883 0.0811919
N -1.1806288 -0.2608041 0.6618028
N 1.2814462 -0.852702 0.20797406
N 0.8654234 -1.429009 -0.8065689
C 0.31622255 0.03342608 0.81655174
H 0.6583221 0.36245844 1.7960736
H -1.9186527 1.6882604 -0.92862254
H 1.6345085 -2.033436 -1.1320603
