11

C 1.364756 1.0701263 -0.257304
O 0.7178464 -0.16735627 -0.51002514
C -0.60794395 -0.15279786 -0.15790038
C -1.1939071 -1.3822572 0.34282055
O -0.9115725 -0.27553603 1.2092015
H -0.54353726 -2.2436361 0.47890308
H 2.3796432 0.9805908 -0.6497079
H 1.3995476 1.2778019 0.8180502
H -2.251423 -1.5955362 0.19030876
H -1.206908 0.5912434 -0.6923362
H 0.8534987 1.8973577 -0.77201027
