10

N 1.45354237 1.12419078 -0.56313066
C -1.39280736 -0.91499106 0.22805194
O -1.50339262 -1.46847639 1.44598500
N -0.25209876 -0.18922513 0.27895529
C 0.20085371 0.59518197 -0.80545083
O -0.44411424 0.80879257 -1.79823187
H 0.28174713 -0.14823561 1.14585314
H 2.10258395 0.61516323 0.01639427
H -2.30899442 -1.99778770 1.42070661
H 1.86268021 1.57538733 -1.36913224
