10

N -0.3924143 -0.07924213 0.29236475
C 0.57623154 0.18558066 -0.6992995
O -2.0782797 -1.2017883 1.2442923
N 1.3591121 1.2723753 -0.3920465
C -1.2090638 -1.1549072 0.26216677
O 0.66328424 -0.4540627 -1.7166388
H -2.0212214 -2.0623846 0.39749476
H -0.5570192 0.57557946 1.0549759
H 1.5154542 1.5244642 0.5714489
H 2.1439164 1.3943852 -1.0147587
