10

O 0.36942378 0.90568805 0.48476297
C 0.43465015 0.50275147 -1.9154891
C 0.09779597 0.08195608 -0.5431873
N -0.4583621 -1.0378047 -0.20038345
O 0.9467844 1.5605764 -2.18837
C -0.057873316 0.23227893 1.5779078
C -0.5659727 -0.95702565 1.1709795
H 0.1615898 -0.2579283 -2.6681778
H 0.07001284 0.72505426 2.52795
H -0.9980488 -1.7555466 1.7540077
