10

O -2.385868 0.95672375 0.40987253
C -1.7678722 -0.056184214 0.6274826
C -0.3568502 -0.22512837 0.21046516
N 0.27384642 -1.3434169 0.46431938
O 1.5355691 -1.1753969 -0.03140972
C 1.6379995 0.050175264 -0.5782096
C 0.4705823 0.7190035 -0.4653894
H -2.2092009 -0.9240847 1.153907
H 2.6051517 0.28762388 -1.0019283
H 0.196642 1.7106848 -0.7891095
