11

N -0.65887505 2.295476 0.5925312
C 0.8256738 -0.8132587 0.05115514
O -1.2524444 0.17576708 -0.038733598
C -0.33457175 1.1171718 0.28976655
C -0.56868535 -0.96697426 -0.5427861
O 0.923918 0.6006294 0.22811905
H 0.9224299 -1.305197 1.0241315
H -0.55531704 -0.92839 -1.638002
H -1.0946947 -1.8633931 -0.21026264
H 0.16368827 2.8289175 0.8557093
H 1.6288784 -1.1407489 -0.6116283
