11

N 0.40841565 -1.166087 1.4150474
C -0.7213738 0.81392676 -0.49015155
O 0.5788997 -1.4819283 -0.88566345
C 0.7753043 0.5628112 -0.28309417
C -0.016089791 -1.0977832 0.17025757
O -1.2674181 -0.40709284 -0.048983615
H 1.2270379 0.9001145 0.63940203
H -0.9559402 1.0136544 -1.5399934
H -1.0574268 1.6479805 0.14112702
H 1.4283957 0.4868778 -1.1405566
H -0.3998046 -1.2724733 2.0226085
