11

N 2.26068 -0.64243186 0.7233718
C 1.1075163 -0.31778485 0.34147525
O 0.509604 -0.90048355 -0.7242348
C -0.85481256 -0.49734527 -0.757402
C -0.83616453 0.8040515 0.037503734
O 0.28642455 0.61882526 0.8964604
H 2.547323 -0.06469632 1.5073688
H -1.4724631 -1.2648039 -0.27743557
H -1.158975 -0.3760283 -1.7980033
H -0.66392463 1.6780533 -0.59977776
H -1.7252076 0.96264404 0.6506733
