11

O -0.75402931 3.05628488 0.74410257
C 0.73540280 -0.60889410 0.74041465
C -0.35182195 2.17756523 0.08346475
C 0.51640436 0.00858491 -0.62565581
N 0.05738361 1.36732104 -0.71353123
C -0.27294592 -1.44862915 0.48356300
N -0.55525331 -1.00605064 -0.83934935
H 1.50408694 -0.52352383 1.49534812
H 1.32763826 -0.12154960 -1.34646604
H -1.47571018 -0.60290393 -1.00322793
H -0.73115534 -2.29820466 0.98133728
