11

O -0.025676176 -2.3746688 -0.9700904
C 0.6525381 0.9855247 -0.43160293
C -0.2151496 0.040256843 -0.9481902
C -0.6256988 0.056017645 0.91511405
N 0.5717313 0.8725452 0.93454236
C -0.18402609 -1.4115559 -0.2611986
N -0.50016695 -1.2690299 1.052278
H 1.1843536 1.801025 -0.91686136
H 1.3530583 0.554068 1.494727
H -1.541585 0.63671774 1.065729
H -0.6693786 0.109099455 -1.9344469
