11

O -1.0491632 2.0138135 -2.3036792
C -0.40994477 -0.53100437 1.3988705
C -0.40208906 1.1577674 -1.8358743
C 0.71979535 -0.29702312 -0.22773735
N 0.30335906 0.23861681 -1.4943299
C 0.39952075 0.47045338 1.0386722
N -0.16113086 -1.3843548 0.2873153
H 0.80938876 1.3497099 1.5151217
H -0.95224565 -1.593574 -0.3184809
H 1.7509854 -0.644531 -0.33014905
H -1.0084757 -0.7798736 2.2702708
