11

O -0.7643617 -1.4182867 1.1215392
C 0.7991659 0.88184357 -1.1373566
O 0.51144964 1.615179 0.047204737
C -1.3871444 -0.13987303 0.0068922453
C 0.04713582 0.28458366 -0.025170293
C 0.49790612 -0.7695064 0.9322887
O 1.495362 -1.1186026 1.4613503
H 0.24482669 1.1760164 -2.0267494
H -2.0068517 0.444175 0.69445395
H -1.280895 -1.5665991 0.2008992
H 1.8434064 0.6110701 -1.2753522
