11

O -0.81282225 0.99955891 -1.81468164
C -1.20124257 -0.82701768 0.30489771
O -2.11116092 -1.50959886 0.31757818
C 1.22165830 -0.52159854 0.85850638
C -0.06635682 0.06137563 0.32261045
C -0.10837132 1.04674399 -0.69542363
O 0.49524845 0.35444673 1.63712156
H 1.24004683 -1.56802059 1.16389453
H -1.28970763 0.16357573 -1.91661164
H 0.50029929 1.93777737 -0.57495129
H 2.13240840 -0.13724253 0.39705940
