11

O 0.62973374 1.0632644 0.97866315
C 0.18798634 -1.2760146 -0.050864637
O -2.3673806 0.6934813 -0.09914045
C 0.12853608 0.24520835 -0.11423234
C 1.0047922 1.2205832 -0.77289104
C -1.3768413 0.036449257 -0.09371461
O -1.262596 -1.3289138 -0.092907354
H 0.36856347 2.1017802 -0.96629834
H 0.5651139 -1.7134075 0.8770567
H 0.6359597 -1.7482978 -0.92704976
H 1.4861321 0.7058673 1.2613785
