11

O -1.84827244 0.79464874 -1.43096407
C -1.13700981 0.10314112 -0.77612721
O -1.33132684 -1.19926547 -0.39764749
C -0.08788784 -1.23893007 0.35137937
C 0.21575179 0.18798484 -0.08837726
C 1.48239577 0.84657079 -0.42733115
O 0.32264852 1.26670659 0.88103897
H 0.59882029 -1.98996127 -0.04335599
H -0.28139323 -1.39287012 1.41600788
H 1.21093383 1.66725311 -1.11398280
H 0.85533996 0.95472162 1.62935977
