11

O -0.16984655 -0.89124566 -1.3008904
C -1.4592365 -0.8099195 -0.07888163
O 1.3225223 0.97360575 0.8922966
C -0.15380715 -0.1364887 -0.087416925
C 0.24096665 1.3291361 -0.021072466
C 1.0486635 -0.36064276 0.81514263
O 1.6111902 -1.2689588 1.3369688
H -1.2296911 -0.8064532 -1.5076721
H 0.6365117 1.7484868 -0.94773227
H -1.3679525 -1.7713281 0.44269192
H -0.47932044 1.993808 0.4565657
