12

N -0.80743681 0.51773195 0.03877010
C 0.09567273 1.25143927 0.73062732
N 1.22635431 -0.55805031 0.06410215
C 1.33475974 0.62500220 0.76293643
O -0.23015245 2.44009158 1.29802783
C -0.02937273 -0.51242597 -0.29649362
N -0.58175872 -1.62527301 -1.09679903
H -1.16748538 2.58626540 1.11729711
H -1.35967671 -2.08135254 -0.61579000
H 2.25710204 0.94782912 1.22792572
H 0.18524994 -2.28884108 -1.22670313
H -0.92325646 -1.30241625 -2.00390116
