11

N -1.362333 0.56662226 -1.3024771
C -0.5232392 -0.27187124 -0.57345086
O -0.7121796 -1.5814879 -0.90439117
C 0.32020238 0.1525356 0.3565252
C 1.1499896 0.115416184 1.5162233
O 0.7688228 1.358121 0.8526177
H 2.2068357 -0.13606995 1.4323812
H -1.1917084 1.5424105 -1.1096164
H -1.3431499 0.37543017 -2.2951412
H 0.71196735 -0.0121549675 2.5059898
H -0.025207853 -2.1089516 -0.4786604
