11

N 0.57493417 1.23613296 -1.41946637
C -0.17206658 -0.70984249 1.76103566
O 1.02242807 0.07021682 1.45335762
C 0.08099507 -0.15478147 0.47158173
C -0.15517722 0.24434886 -0.76990446
O -1.16669932 -0.22822082 -1.55336901
H -1.55743967 -0.99751997 -1.12105475
H 0.01506824 -1.76551911 1.95526718
H -0.85858345 -0.21805945 2.44996212
H 1.36217542 1.55312019 -0.87335191
H 0.85436527 0.97012467 -2.35405841
