11

N 0.5625044 -1.4130944 -1.3638839
C 0.17491202 -0.44000056 -0.4511883
C -1.0235854 0.103236586 -0.108208194
C -0.7128633 1.1318895 0.8540369
C 0.628083 1.1196972 1.0110446
O 1.1877915 0.15534267 0.21316391
H 1.433153 -1.8573376 -1.1044583
H -0.15987952 -2.0996144 -1.5295587
H -1.99712 -0.17207001 -0.48467937
H -1.4134301 1.7837503 1.3526042
H 1.3204345 1.6882008 1.6111268
