11

N -1.83896418 1.40858424 0.16824577
C 1.12291375 -0.66040737 0.07523547
C -1.00061589 0.47278490 -0.37930754
C 0.24353350 0.24423012 0.41734150
C 2.00517933 -1.55845780 -0.24159839
O -1.24660381 -0.09511374 -1.42414204
H 2.82482822 -1.32649229 -0.91790297
H 1.93626931 -2.57084242 0.14794933
H -2.74327330 1.51464409 -0.26462577
H -1.72599089 1.71318794 1.12095545
H 0.42272407 0.85788243 1.29784883
