11

N -2.0733376 1.0037229 -0.2966767
C 1.2506306 -0.3597681 0.09603918
C 0.25672743 0.46115342 -0.12066223
C 2.2519875 -1.1558503 0.31696522
C -1.1631687 -0.006469 -0.12501486
O -1.4906408 -1.1701081 -0.009238705
H -3.0457003 0.7599466 -0.189507
H 2.6237788 -1.319037 1.3252112
H 0.46364588 1.5115435 -0.3151796
H -1.8067105 1.9678361 -0.18443663
H 2.7327874 -1.6929704 -0.49750003
