10

O 2.12002896 -0.60078562 -0.09847387
C 0.81268939 -0.30575648 -0.14239113
N 0.27762090 0.49837341 0.80222995
C -1.07445026 0.61577689 0.48850667
C -1.24295259 -0.13599366 -0.63137921
N -0.05011257 -0.71679266 -1.02686436
H 0.77530519 0.91641835 1.57185972
H -1.75016492 1.20880964 1.08416870
H -2.15277326 -0.30199242 -1.19050342
H 2.28480938 -1.17805736 -0.85715302
