10

O 2.3637753 -0.3959957 0.27576423
C 1.1731577 -0.19632235 0.13592514
N 0.3304883 0.57191974 0.92327684
C -0.9740804 0.55268824 0.4347798
C -0.9763568 -0.22414634 -0.66272604
N 0.32629487 -0.68080103 -0.8484146
H 0.66066116 1.0599949 1.7374158
H -1.7755191 1.0923777 0.91201085
H -1.781639 -0.49360037 -1.3269438
H 0.6532182 -1.2861147 -1.5810882
