10

O 0.9849324 -0.1280475 2.064586
C 0.34194008 -0.12949695 0.95507264
N -0.7758227 -0.6687859 0.43248618
C -0.85314596 -0.22522984 -0.901125
C 0.22871107 0.5680919 -1.1179738
N 0.9651299 0.61856115 0.05384802
H 0.51789594 1.0966963 -2.013902
H -1.668029 -0.5187585 -1.545558
H -1.4169416 -1.2740694 0.91462797
H 1.6753299 0.66103876 1.1579381
