11

N 0.73629934 1.7369297 2.3411334
C 0.24837804 1.3253418 1.3791772
C -0.34749904 0.78133655 0.1443136
C 0.5795225 -0.11747929 -0.69984
C -0.40029818 -1.2326058 -0.3116576
O -1.2409283 -0.30220407 0.40076733
H -0.83680874 1.6017619 -0.39169246
H 0.5937117 0.14205645 -1.7595049
H 1.5985441 -0.2199949 -0.32647604
H -0.93551993 -1.7143054 -1.133927
H 0.004598672 -2.0008368 0.3577059
