11

C 0.17068174 0.89516896 1.4064069
N -0.69752216 -0.22339368 1.013762
C -0.744346 -0.8741235 -0.13264383
O 0.22938566 -0.27206016 -0.9229461
C 0.35543117 -0.7363348 -2.1997075
O -0.3106761 -1.566701 -2.7364907
H -0.090073265 1.1964419 2.4234684
H 0.02701141 1.7425861 0.73179704
H 1.2203058 0.5911181 1.3783971
H 1.1944988 -0.19680403 -2.6664653
H -1.3546971 -0.5558982 1.7044227
