11

C 1.0268205 0.052308023 0.13481772
N 0.61787105 1.1850101 -0.39056104
C -0.783509 1.382831 -0.8060827
O 0.062384196 -0.94067264 0.14597592
C 0.35654467 -2.0880616 0.8346919
O 1.2760334 -2.2566211 1.5734286
H -0.9347993 0.8551823 -1.7515912
H -0.9464338 2.4508612 -0.96091634
H 1.2469177 1.1936699 0.68725973
H -1.4937263 0.99066395 -0.07209436
H -0.42810327 -2.8251712 0.6050718
