11

C 0.3738814 0.39952323 -0.4019143
C 1.2842396 1.1786132 -0.9825921
C 0.1632447 0.046235632 0.99835867
C -0.9041637 -0.760954 1.0335226
N -1.4855342 -0.898719 -0.22956564
O -0.60129446 -0.25019026 -1.1339124
H 1.2991852 1.330326 -2.0553315
H -1.5434339 -1.861245 -0.55392003
H -1.3831259 -1.2502416 1.8723485
H 0.76549566 0.39591622 1.8242917
H 2.0315056 1.6707357 -0.37128562
