11

O 1.64557554 -1.74711748 -0.47283601
C 0.47863557 0.36801607 -0.96382863
N -0.84928469 0.24374662 0.85524345
C 0.79908042 -0.92477900 -0.15788490
C -0.60735040 1.02276749 -0.18291168
C -0.10051493 -0.89202214 0.95668308
H 0.17015837 0.10061561 -1.98115503
H -1.14297169 1.94697808 -0.33643970
H -0.22257886 -1.57787576 1.77818995
H 1.38042196 0.98644697 -1.04577383
H -1.55117153 0.47322349 1.55071282
