9

O -0.9333587 -1.1287931 -1.9701313
C -0.40845954 -0.6198333 -1.0175213
N -0.89841205 0.3209878 -0.14026481
C 0.06534847 0.62649375 0.82013196
C 1.1305441 -0.124875635 0.5275665
O 0.8680828 -0.8921509 -0.5857095
H -1.823152 0.7061691 -0.22432241
H -0.10207672 1.3435957 1.6083691
H 2.1014836 -0.23159347 0.9818816
