9

O 0.88899755 0.59153837 -1.0452476
C 0.9744399 -0.7733875 -0.8141813
N -0.7209019 0.182778 0.39764047
C -0.15741044 1.1916982 -0.3728202
C -0.006063771 -0.98221385 0.18501526
O -0.4685969 2.3411112 -0.46433726
H -0.3363931 -1.9463387 0.55121535
H -1.4357833 0.36673635 1.0791693
H 1.2617121 -0.9719221 0.48354608
