9

O -1.13664348 -1.08811755 -1.87384649
C -0.50913550 -0.67327325 -0.95087469
N -0.53116505 0.48366295 -0.26371921
C 1.13809857 -0.85637414 0.68102993
C 0.45556609 0.49487730 0.78598107
O 0.53490999 -1.45603930 -0.31833338
H -1.17577290 1.21451539 -0.50927706
H 0.01930545 0.59454718 1.78620627
H 1.20483678 1.28620138 0.66283340
