9

O -0.2842651 1.5493958 0.16149683
C -1.1943609 0.43551552 -0.022510065
N -0.39733222 -0.64591664 -0.10262933
C 0.9845353 1.2170653 0.20466827
C 0.99270034 -0.2899104 0.026613912
O -2.3741877 0.5873149 -0.074516594
H 1.47536 -0.75168574 0.8964236
H -0.78777885 -1.5633264 -0.2286214
H 1.5853292 -0.53845245 -0.86092526
