11

C 1.2980199 0.6377416 0.57398105
C 0.101411894 -0.29105264 0.4135676
C -0.7477913 0.050925992 -0.7826793
O -0.54216707 0.9498486 -1.5536611
C -1.9303793 -0.8331203 -0.97816443
N -2.8434834 -1.523806 -1.1204222
H 1.9472743 0.5977072 -0.30536398
H 1.8816366 0.3433339 1.4504704
H 0.97723573 1.6748261 0.7025492
H -0.5533098 -0.2680517 1.2950991
H 0.41155267 -1.338353 0.3046235
