9

N -0.66906184 -0.33877015 -0.74136746
C -0.2710231 0.04132486 1.3013195
C 1.0552179 0.13014358 0.74466455
C 0.696604 -0.03502753 -0.65463036
N -1.2362579 -0.2611421 0.446982
H 1.3546475 -0.30063006 -1.476291
H -1.2477279 -0.47807196 -1.554161
H -0.532366 0.13749787 2.349739
H 0.84996706 1.1046754 -0.41625562
