9

N -0.7730294 0.24545678 -0.87544096
C 0.57401395 0.30883968 -0.7620435
C 0.8697125 -0.11286369 0.51521784
C -0.3870987 -0.4075678 1.0870571
N -1.3793741 -0.18813394 0.23801371
H -1.3394217 0.48058102 -1.674101
H 1.1974978 0.64020246 -1.5787318
H 1.8460524 -0.19586337 0.9681239
H -0.6083525 -0.7706511 2.0819046
