12

N -1.20733555 -0.59676359 1.21170115
C -0.43863718 0.45096543 0.87095314
O -0.36974108 1.51784745 1.42121743
N 0.36483425 0.17237594 -0.34642538
C 0.58019970 1.22448351 -1.10597305
C 0.70013280 -1.12268392 -0.59075758
H -1.81921539 -0.49629740 2.00499229
H 0.90883388 -1.73808337 0.27643492
H 0.09209657 2.15738534 -0.86120398
H 1.22978085 1.11754247 -1.96429711
H -1.28144436 -1.38972693 0.59528964
H 1.24049559 -1.29704494 -1.51193176
