12

N -0.19021548 1.2996764 -1.4243997
C 0.7212412 0.5147337 -0.7841323
O 1.9117825 0.4880328 -0.98236287
N 0.12531929 -0.3395114 0.1762568
C 0.77425516 -1.0798105 1.1037563
C -1.1767412 -0.47401655 0.58826894
H 0.17990242 1.9975066 -2.046046
H -1.4442935 -0.16812009 1.5891914
H 1.6033509 -0.65658563 1.6626999
H -1.0963758 1.4394718 -1.0083658
H -1.9157838 -0.8990605 -0.08715531
H 0.5075585 -2.1223166 1.2122885
