10

N -0.75064128 -1.04027697 -0.32686249
C -1.46412959 -0.03448257 0.16407223
C 0.66452783 -0.83535393 -0.41545476
C 0.92959936 0.38566989 0.04050432
C -0.38437176 0.99869481 0.44635324
H -0.41413737 1.27600034 1.50852699
H -1.17677110 -1.90907176 -0.62145729
H 1.30815719 -1.61316348 -0.80318666
H 1.90492721 0.85035537 0.10785318
H -0.61716075 1.92162824 -0.10034861
