10

N 0.7333017 -0.018935312 0.999266
C -0.6638268 -0.5689397 -0.63871586
C 0.9376876 1.0282066 0.11926616
C -0.14861935 -0.97449034 0.55521625
C -0.019497853 0.69312745 -0.9132738
H -0.35077935 -1.8681384 1.132949
H -0.22852516 1.6205724 -0.046686046
H -1.390297 -1.0863475 -1.2473361
H 1.2171708 -0.07429617 1.8810056
H -0.08661433 1.2492409 -1.841691
