10

N -1.0498512 0.2623203 0.36098468
C -0.65976983 -0.96769136 -0.10106981
C 0.6687181 -0.88609475 -0.4396994
C 1.0937954 0.44594684 -0.16950622
C 0.010850741 1.1297778 0.32378477
H -1.9737988 0.4927216 0.68435955
H -1.3566545 -1.7913821 -0.14780211
H 1.2760382 -1.6869092 -0.8373146
H 2.085678 0.8471305 -0.32323018
H -0.09500639 2.1541803 0.64949346
