10

N -0.996136 -0.0814144 -0.86807966
C 0.31725267 -0.65347016 -0.88563174
C -0.017526748 0.5914065 0.9971436
C 0.94406825 -0.27091083 0.22333686
C -1.3021073 0.6645338 0.18626739
H 1.9536525 -0.53076524 0.5147956
H 0.35776734 1.6083447 1.1699753
H 0.6339493 -1.2746462 -1.7123276
H -1.6518662 -0.24404179 -1.6209059
H -0.23905389 0.1909635 1.9954264
