11

O 1.1988863 0.63272125 -1.9690808
C 0.16494597 0.68544817 -1.3581394
C 0.045727637 0.16636302 0.05535909
C 0.86540365 -1.003812 0.44098964
O 1.1968726 0.28790402 0.87093085
C -1.2529637 0.36668634 0.7763135
O -2.2869568 0.59884655 0.20733629
H -0.76892996 1.0971596 -1.7816862
H 0.4954693 -1.6823572 1.2088122
H 1.5156697 -1.4195787 -0.3280569
H -1.1741251 0.270619 1.8772217
