10

O -0.554019 1.0065627 -1.8758243
C -0.23336647 0.30102125 -0.7872906
C 0.094617575 -1.7521402 0.2627133
N -0.23012887 -0.99860215 -0.85359144
N 0.4194887 0.37347528 1.467845
C 0.09659952 1.0246886 0.3953776
N 0.40170953 -0.97038674 1.3329556
H -0.7420005 0.35160965 -2.5703273
H 0.091951974 2.1069064 0.43775368
H 0.6551477 -1.443135 2.1903884
