10

N 1.5074508 -0.33119488 0.019009998
C -0.5505732 -0.050655104 -0.32433105
C 0.49132085 -0.7570214 -0.86527485
O -0.1865972 0.72129554 0.7873853
C 1.0901855 0.5030418 0.9581661
N -1.8725295 0.13469523 -0.7170878
H -2.0334146 -0.39608186 -1.5619848
H -2.5438035 -0.14477897 -0.009905797
H 1.6335714 0.9629698 1.7688104
H 2.4643896 -0.6422701 -0.054787625
