10

N 2.49167297 0.61122648 -1.71629161
C -1.05474472 -0.04714697 1.32529824
O 0.17228170 0.17821240 0.82136737
C 0.30038491 0.06674153 -0.55566104
C 1.46530553 0.29807390 -1.11620857
N -2.05456196 -0.34240307 0.61791073
H -1.01693411 0.06988937 2.41119438
H -2.87923603 -0.47228860 1.19580260
H -0.57787393 -0.21523065 -1.12310096
H 3.15370574 -0.14707453 -1.86031110
