10

N -1.106692 1.5476147 0.5678446
C 1.4831057 -1.0443882 -0.7632072
O -0.60069567 -0.67636776 0.2724498
C 0.7242406 -0.33725432 0.13365225
C -1.4576573 0.33662844 0.5202601
N 1.9203675 -2.0111694 -1.4327329
H 2.3433845 -0.48804104 -1.2681537
H -1.9036775 2.1447673 0.7626439
H 1.0538428 0.60834724 0.5408784
H -2.4562185 -0.08013697 0.66636497
