10

N 0.8083462 -0.15626357 1.6789659
C -0.3785853 0.13997267 1.363526
O -0.79341435 0.20774677 0.08935424
C 0.21365386 -0.08566382 -0.8712729
C -0.38859716 0.04078322 -2.2011888
N -0.81676745 0.12617275 -3.2705686
H 0.9223872 -0.1548252 2.6893513
H -1.2163652 0.37541285 2.025369
H 0.5957458 -1.1014327 -0.7302528
H 1.0535965 0.6080969 -0.7732833
