10

N 1.5780025 -0.83208936 -1.4016988
C 0.6873683 -0.36597216 -0.6147936
O -0.06341008 -1.3468125 0.14585106
C -0.927037 -0.7219163 0.9085203
C 0.14473256 0.87018335 -0.1924121
N -0.8332205 0.5761812 0.73752284
H 2.0366194 -0.06266878 -1.8788371
H -1.4031903 1.2574806 1.2173014
H -1.594497 -1.2546762 1.5655371
H 0.37463236 1.88029 -0.48699138
