11

C 0.29182222 -1.4043627 -1.237467
O -1.3346269 1.9004303 1.4901088
C -0.24157228 1.2192577 1.420237
C -0.16509211 0.44366872 0.16809271
O 0.2568409 -0.7710446 0.05835226
H -0.5876902 0.9282041 -0.7152079
H -0.36039367 -0.8788717 -1.9373866
H 0.7520349 1.7851757 1.1507908
H -0.04837155 -2.4285452 -1.0884525
H 0.11158565 0.599852 2.280686
H 1.3254629 -1.3937643 -1.5897533
