11

C 1.0770601 -1.3615712 0.28313017
O -1.5490068 0.16425782 -0.02896704
C -0.22357684 0.56788313 0.20062476
C -1.0860636 1.3697311 -0.6480518
O 0.77429503 -0.15524316 -0.39797089
H 1.9350159 -1.8057041 -0.22675405
H -0.9534012 1.3027533 -1.7256103
H -1.5365634 2.2874815 -0.27277204
H 1.3435909 -1.1708897 1.3337779
H 0.22857754 -2.0538905 0.24753171
H -0.0099276155 0.85519224 1.2350618
