12

N -1.5216055 -1.1025578 -1.3404061
C -0.6184444 -0.452593 -0.5517379
N -0.68891716 -0.6973898 0.76601934
C 0.22151977 -0.08917049 1.5151507
C 1.1941663 0.75508785 0.99384415
C 1.155265 0.9371874 -0.3841698
N 0.26334944 0.35086855 -1.1712581
H -1.6507065 -0.748965 -2.2753274
H -2.320906 -1.5017982 -0.8755082
H 0.1657212 -0.28465164 2.5837681
H 1.928726 1.2450981 1.6199099
H 1.8718319 1.5888842 -0.88028467
