12

N -1.65930829 -0.77722116 -1.24367604
C -0.37242981 -1.09776714 -1.06484210
N 1.33182439 -0.49327079 1.73507377
C 0.12973191 -0.15867377 1.67460218
C 0.97197220 0.78012638 0.95732261
C 1.12596721 0.70155284 -0.51805753
N 0.47287206 -0.11366327 -1.23842123
H -1.97286542 0.14890778 -1.52308139
H -2.35177336 -1.50393194 -1.19736774
H -0.83494204 -0.53356062 1.98746959
H 1.28770504 1.71212217 1.42301706
H 1.87124616 1.33537970 -0.99203915
