12

N 1.1219813 1.3985869 1.3463528
C -0.03100457 0.9222437 1.4123758
N -0.71913296 -2.085533 -0.19366659
C 0.4779767 -1.4874427 -0.19167134
C 0.5721514 0.7501502 -1.0669019
C 0.20274651 1.5532479 0.12691925
N 0.6143297 -0.51800334 -1.0604179
H -0.86368823 -2.8847847 0.39799327
H -1.468243 -1.8385745 -0.8354967
H -0.14398594 2.566985 -0.066182815
H -0.63396096 0.34563234 2.1001148
H 0.8708303 1.2774922 -1.969419
