11

C -1.56637802 0.79859172 -0.49605273
N -0.53115243 -0.16951228 -0.20289113
C 0.76317598 0.19669702 0.02766304
O 1.17170938 1.34611207 0.12106441
C 1.73538711 -0.94821373 0.00764642
O 1.97273076 -1.27456597 1.26503056
H -1.94148428 0.67820177 -1.51779636
H -2.39926373 0.69221414 0.20495181
H -1.12900750 1.79211985 -0.38685582
H -0.73387814 -1.15362943 -0.28627911
H 2.65816112 -1.95801530 1.26351884
