11

C -1.4723098 0.7946057 -0.44943017
N -0.4806586 -0.08614007 0.1303712
C 0.8397332 0.024423702 -0.12388624
O 1.3844017 0.84246033 -0.8420699
C 1.6766399 -1.0224469 0.6070209
O 1.196873 -1.8584454 1.3290654
H -0.95269525 1.5169861 -1.0804352
H -2.1817052 0.22813159 -1.061946
H -2.0194142 1.3292669 0.33313107
H -0.7506935 -0.83574265 0.751526
H 2.759829 -0.93309945 0.40665287
