12

N -0.48359525 -0.22101687 -0.0058921124
C -1.3524323 -0.6583937 -0.88951945
O 0.07531927 1.5774248 -1.3913445
N 1.6418096 0.76410997 0.06123084
C -0.28293785 -0.64395607 1.2687802
C 0.43706107 0.81903756 -0.5338177
H 1.8728665 -0.01059803 0.6613975
H 0.03980326 0.10956585 1.9772896
H -1.263769 -0.3316377 -1.9160664
H -0.91173667 -1.4622225 1.5941769
H -2.1235094 -1.3402677 -0.5575052
H 2.3511205 1.3979546 -0.26872966
