11

O 1.1695484 -0.26738366 -2.3196049
C 0.7068312 0.52146834 -1.4407549
C -0.08480002 -0.18640153 -0.50171566
N -0.91213286 -0.32605317 1.7545907
C -0.09834321 0.34384885 0.88035935
O 0.572112 1.3135955 1.2147388
H 0.701978 -1.0602925 -1.481105
H -0.7966908 -0.087498434 2.7261157
H -1.2176895 -1.2614433 1.5391251
H 0.98267347 1.5752525 -1.4498168
H -1.0234866 -0.56509274 -0.9219332
