11

O -1.5048922 -1.0424159 0.3830983
C -0.16817243 -0.77250546 0.06565975
C 0.027848454 0.23446777 -1.0926206
N 0.76305324 1.0777656 -0.14865036
C 0.50806284 0.30212745 0.94664145
O 0.68259996 0.4412332 2.131559
H -1.558394 -1.1242554 1.3433065
H 0.43255955 -1.6844853 -0.04304932
H 0.62459755 -0.11541863 -1.9383268
H -0.919869 0.6610961 -1.4323746
H 1.1126062 2.0223904 -0.21524334
