11

O -2.49228957 -0.47894643 0.97073342
C 0.73916589 0.56829314 -0.51889786
C -1.50317343 0.11893530 0.29171381
N 2.03221469 0.09780316 -0.50378409
C -0.21377904 -0.22722942 0.28748899
O 0.43013124 1.57490244 -1.12844562
H -2.13558286 -1.21365673 1.48633094
H 2.20803814 -0.87447513 -0.30451094
H 2.64714457 0.53849673 -1.17023089
H -1.86549860 0.96083717 -0.29016422
H 0.15362914 -1.06496041 0.87976644
