11

O -2.268635 1.3942995 0.54078144
C -0.2457219 0.13743868 0.31735778
C -1.2329731 0.9026953 -0.15392041
N 1.7643795 -1.1307801 -0.03951835
C 0.82579625 -0.2990609 -0.60597146
O 0.90395 0.060178913 -1.7657783
H -1.2704064 1.1998644 -1.1974479
H -2.1989472 1.1229206 1.4651065
H 2.4016244 -1.5536855 -0.6964589
H 1.5213089 -1.6814156 0.76897776
H -0.20037554 -0.1524554 1.3668718
