12

N -0.9278206 2.078643 1.7927061
C -0.85797507 1.2751601 0.9650443
C -0.7612334 0.22338475 -0.067443565
C 0.39414492 0.47467303 -1.0844953
N 1.4852949 -0.41454396 -0.682694
C 1.0058131 -1.1969167 0.19361463
N -0.34643054 -1.0550494 0.5092072
H -1.7335352 0.13502616 -0.56098145
H 0.072300114 0.2164776 -2.0982313
H 0.7283702 1.5147617 -1.090525
H 1.5770795 -1.9913791 0.66874886
H -0.63600814 -1.2602372 1.4550496
