11

C -0.97274871 0.66558122 0.82226388
N 0.23773263 1.05862617 0.28646992
C 0.71691882 0.06404683 -0.65278526
O -1.76908245 1.33748727 1.41904241
C 0.02287917 -1.17652888 -0.07563638
O -1.13977517 -0.66397827 0.57891538
H 0.39379651 0.27106620 -1.68062606
H -0.29149100 -1.89345037 -0.83474698
H 0.34413342 2.04420590 0.10390968
H 0.65117963 -1.67697311 0.66753247
H 1.80645721 -0.03008296 -0.63433912
