11

C -1.4729447 0.7947635 -0.44923446
N -0.47844422 -0.08723877 0.12622444
C 0.841861 0.025113268 -0.12257524
O 1.3839815 0.84604776 -0.84100074
C 1.6780506 -1.0267297 0.6098085
O 1.1951971 -1.8606282 1.3327868
H -0.95087445 1.519964 -1.0765073
H -2.1812377 0.23401114 -1.0679059
H -2.0214112 1.3277506 0.33260167
H -0.75437146 -0.8339626 0.7496273
H 2.7601936 -0.939091 0.40617487
