12

O -0.50923433 0.83878297 1.62263243
C -0.52068830 -0.36231523 1.46435200
C 0.61893670 0.65241986 -1.19105895
O 0.27892065 1.91943900 -0.77475728
C -0.39461003 -1.07412333 0.13141018
O -0.44652312 -0.27083502 -1.00956545
H -1.22132613 -1.79135417 0.06043934
H 0.53636467 -1.67098495 0.17941806
H -0.61784684 -1.03308201 2.33823674
H 1.52535121 0.25866546 -0.69436793
H -0.04168504 1.84100394 0.14319555
H 0.79234027 0.69238331 -2.26993490
