12

O -0.6881124 0.6323148 -1.4516703
C -1.0054947 0.25408265 -0.26722276
C -0.46016377 -1.116377 0.22649015
O 0.8473308 -0.857413 0.71649826
C 1.1692215 0.46893194 0.45323667
O 1.5189803 0.8318427 -0.7239793
H 0.5534599 0.722574 -1.3508148
H -0.14129001 0.90901667 0.5676265
H -1.058741 -1.5332878 1.043601
H 1.6928233 0.93431115 1.2925723
H -1.988815 0.5658839 0.11054319
H -0.43919915 -1.8118799 -0.61688095
