10

N 1.9528134 0.20888294 -0.22209734
C 1.1951473 -0.5758742 -0.85684365
O -0.099603266 -0.77517027 -0.5328814
C -1.8415663 0.3264134 0.5751041
C -0.54630387 -0.1064927 0.5822095
N -3.0807226 0.34007737 0.38139555
H 1.435568 -1.1947341 -1.723682
H 0.1767291 0.2818825 1.2813541
H 2.885276 0.20939563 -0.6227481
H -2.0773377 1.2856196 1.1381891
