11

N -0.35907027 0.49192214 1.963039
C -0.15808614 0.18275306 0.6130659
C 0.5240881 -0.8685706 0.053713147
N 0.34701043 -0.7113735 -1.3132037
C -0.4190961 0.38827133 -1.4948118
N -0.73812175 0.95851684 -0.35793296
H -0.75080913 1.42159 2.047178
H 0.4748364 0.41051555 2.5263727
H 1.0824375 -1.6916728 0.4704416
H 0.71215826 -1.3137132 -2.0313585
H -0.7153474 0.7317611 -2.4765036
