11

N -0.28899568 0.33236657 0.05435201
C 1.29089966 -1.24842261 1.65840861
C -1.01515597 1.04192015 -0.89512928
N -1.77208570 1.98774555 -0.51016646
C 0.47316755 -0.61272113 -0.40393895
N 1.26125720 -1.40302454 0.39108546
H 0.69772607 -0.49616409 2.17957042
H -2.23782996 2.41967962 -1.30084040
H -0.90041722 0.74242765 -1.95113742
H 0.55255199 -0.86357667 -1.46245315
H 1.93888200 -1.90023069 2.24024914
