11

N 0.29337144 0.3070649 2.0010958
C 0.114896744 0.10539681 0.76201713
C -0.63581914 0.84516877 -0.34406602
N -0.42678618 0.08134438 -1.5738866
C 0.2933074 -0.9172489 -1.2463007
N 0.6513952 -0.989213 0.090592206
H -0.17221513 1.1616423 2.2993748
H -1.706351 0.91224164 -0.11917406
H -0.26332745 1.8689805 -0.46170384
H 0.62742907 -1.6861513 -1.938415
H 1.224099 -1.6892263 0.53046626
