9

O -0.5810124 0.98493654 0.69470435
C 0.5627891 -0.90990466 0.34035093
N 0.20041688 -0.36305073 -0.8848379
C 0.08871201 -0.08787595 1.3001964
C -0.46426126 0.7386946 -0.5978396
O -0.85981905 1.3345321 -1.6488103
H -0.18540187 0.21010251 -2.024415
H 0.115759954 -0.08019235 2.3770704
H 1.1228167 -1.827242 0.4435807
