9

O 1.8852645 -0.08379924 -0.71633583
C 0.6364487 -0.02555464 -0.23864636
N -1.4795141 -0.15359497 0.4282616
C -0.4818209 -0.78398496 -0.3129893
C -0.92246777 0.9079008 0.8883848
O 0.38040185 1.0577157 0.52174056
H 1.9751254 -0.8824258 -1.2525998
H -1.3438271 1.6810492 1.5133288
H -0.64961064 -1.717306 -0.8311444
