9

O 1.37612985 -0.28700089 -1.44854368
C 0.46536469 -0.09315812 -0.48726726
N -1.09222881 -0.02828443 1.09644769
C -0.39863852 -0.85913225 0.21846103
C -0.62115191 1.14559412 0.87535280
O 0.34216526 1.18792888 -0.08619259
H 1.39002439 -1.22547249 -1.67775189
H -0.57698866 -1.92373615 0.16810196
H -0.88467611 2.08326126 1.34139192
