10

O 0.076913066 -2.3625133 0.6579138
C -0.7109667 0.83873093 -0.78210026
C -0.39258492 -1.1154257 0.92242956
N 0.282068 1.8380091 -1.004075
N 1.4569424 1.435112 -0.9233346
C -0.539622 -0.18985075 0.013978013
H -1.6592835 1.0569745 -1.2654321
H -0.65449303 -0.89536 1.9582828
H 2.0510123 2.267741 -1.0515565
H 0.09001439 -2.873418 1.473894
