10

O -2.18199723 -0.31729078 1.07631310
C 0.55236924 0.60650749 -1.07128937
C -0.30165841 0.47899654 -0.08363678
N 1.59259828 -1.37136286 -0.78598284
N 1.71048900 -0.21186746 -1.22284340
C -1.04712955 0.42406233 0.98633896
H 0.49055453 1.40760475 -1.80270362
H 2.51297595 -1.81729892 -0.91512200
H -2.56830628 -0.19648811 1.94992112
H -0.75989566 0.99713697 1.86900473
