14

C 0.75346682 0.16496327 -1.97600858
N -0.07096141 -0.32029818 1.57857672
C 0.53089563 -0.17190188 0.46447114
O 1.84614307 -0.46782124 0.37339422
N 0.03280587 0.30323609 -0.72239449
C -1.46818309 0.05012456 1.64950228
H 1.77183050 0.54078742 -1.85876074
H 2.09158068 -0.74318223 1.26825693
H 0.24520928 0.77209227 -2.72737932
H 0.80647340 -0.87335321 -2.32839458
H -1.82487478 -0.11938017 2.66803798
H -2.10397918 -0.55115981 0.97820338
H -1.63691486 1.11095092 1.40805399
H -0.97349164 0.30494196 -0.77555878
