14

C 0.68738115 0.99599963 -1.9242717
N 0.4966055 0.4743124 -0.58562243
C -0.045746017 -0.7688515 2.1029336
O -1.6501437 -0.3234873 -0.97655904
N -0.88215625 -0.77458465 0.9283286
C -0.6182409 -0.186127 -0.21556403
H -0.56135476 -1.3032513 2.905051
H -1.9505088 -0.9083064 0.13654566
H 1.3230634 0.34295794 -2.5316281
H -0.29485217 1.0660481 -2.3953815
H 0.91408813 -1.2794331 1.9331952
H 1.1336318 1.9916202 -1.8770794
H 0.1628397 0.25023958 2.4614618
H 1.2853932 0.42286354 0.038590703
