10

O 1.6628048 -0.13120517 -1.445823
C 1.1608918 0.7898705 -0.84428453
N 0.27766985 0.6470817 0.18910073
C -0.21457829 -0.66089845 0.5737242
C -1.650291 -0.81329495 0.2819241
N -2.7807238 -0.91279554 0.076738596
H 1.3842521 1.8503096 -1.0581576
H -0.14744687 1.4702452 0.58672744
H 0.3564454 -1.3948206 0.0002727874
H -0.049023893 -0.84449244 1.6397771
