11

C -0.9589201 0.5072405 1.8521614
C 0.23719056 -0.14303483 0.040601186
N -1.5459925 0.8955458 0.70320606
C 1.4017594 -0.8143838 -0.5894325
C -0.83434564 0.5110421 -0.4324204
O 0.15231203 -0.13791217 1.4141133
H 1.4400486 -1.8706819 -0.30647895
H 2.3383024 -0.3485003 -0.2662438
H 1.3330361 -0.74571794 -1.6772172
H -1.1503906 0.73740894 -1.4374532
H -2.413 1.4089936 0.6991643
