13

C -0.49514487 0.4659506 0.97501695
C 0.29674488 -0.18375503 -0.14483938
N 0.36676776 0.30311388 -1.3197129
O -1.8569498 0.62494344 0.6652464
C 1.0345781 -1.4622715 0.10997709
O -0.37430838 1.4935185 -1.4295621
H -0.4459623 -0.17674333 1.8614742
H 1.5675308 -1.7820519 -0.78715193
H -1.8843089 1.1528511 -0.14603502
H -0.016626915 1.4224392 1.2357228
H 1.7519213 -1.3344461 0.9288121
H 0.33143583 -2.245728 0.41191
H -0.27567738 1.7221795 -2.3608584
