9

O -1.23395974 -0.94716028 -1.63508613
C -0.55686263 -0.58168487 -0.71283074
C -0.15692254 0.86320142 -0.38693567
O 0.63144081 0.72022456 0.79740464
C 0.64679141 -0.59492942 1.05604408
N 0.02439323 -1.40421218 0.28447577
H -1.01955665 1.49817907 -0.17140682
H 0.45074597 1.31642381 -1.17327821
H 1.21393025 -0.87004187 1.94161323
