14

C 1.87463381 -0.81953942 -0.54975332
N 0.51051324 -0.32413378 -0.48279726
C 0.08560851 0.55864218 0.47398562
O 1.12137937 1.13967051 1.11199911
N -1.11087845 0.88747448 0.77019541
C -2.18750131 0.26514408 0.02579219
H 1.99334683 -1.36134805 -1.49007434
H 2.57335141 0.01941368 -0.54380850
H -2.12617960 0.46657561 -1.05471443
H 2.12884029 -1.48890661 0.28255106
H -0.20581808 -0.95105823 -0.81311288
H -2.22050960 -0.82741949 0.16697536
H 0.70152830 1.76945867 1.71722069
H -3.13831526 0.66602632 0.38554148
