14

C -0.28162432 1.1516595 1.9857879
N -0.9386128 0.358066 0.9693638
C -0.22783487 -0.101169445 -0.11038334
O 1.0377297 -0.005580369 -0.12277316
N -0.7659252 -0.67822737 -1.1489487
C 1.1558019 -0.99115396 -1.8590003
H -0.888303 1.1469576 2.894333
H 0.6433131 -0.97977656 -2.8154926
H -1.9176422 0.52622926 0.8125703
H -1.747949 -0.9377734 -1.1466271
H 0.6874449 0.70001906 2.2072732
H 2.0626104 -0.39328584 -1.8848009
H 1.294276 -1.9857843 -1.4547114
H -0.11328441 2.1898196 1.6734097
