12

O -1.2620424 -0.6625912 1.2352824
C 0.12588938 -0.48565257 1.1834329
C 0.584254 0.7044532 0.34449485
O 0.8555229 0.3997756 -1.0435646
C -0.14924279 0.028457642 -1.8260664
O -1.287939 -0.18599007 -1.4884597
H -1.5798248 -0.6418495 0.3176675
H 0.6595698 -1.3834805 0.83053625
H 0.45086327 -0.2991676 2.2135832
H 1.5503864 1.0754081 0.69320315
H -0.15977271 1.5040493 0.39876166
H 0.2123357 -0.053412586 -2.8588717
