12

N 0.96002734 0.10767932 -0.9398797
C 1.5100765 0.12649217 0.26241237
N 1.5482599 1.3127456 0.8657388
C -1.3006809 -0.68504643 -0.544328
C -1.1102278 -0.8757384 0.87457126
C -0.16534586 -0.24395464 -1.4038831
N -1.0707426 -1.9652965 0.2608312
H 2.0769799 1.4073724 1.7151089
H -0.97514534 -0.4786885 1.866838
H 1.1155128 2.1557388 0.49819642
H -2.297284 -0.5866766 -0.9718364
H -0.29142976 -0.27462718 -2.48377
