9

N -0.10977161 0.51714 -0.18277448
C 0.29529533 -0.78363824 -0.14616562
N 1.6362745 -0.8815897 -0.33295178
C -1.3893294 0.9074681 0.17509626
O -1.7801977 2.0451972 0.10086336
H 0.50582916 1.2413442 -0.54667985
H 0.9381231 -1.2361864 0.7954809
H 1.8992236 -1.8675282 -0.3960383
H -1.9954468 0.0577929 0.53316957
