9

N -0.36324843 -0.08395462 0.47067618
C -0.96937130 1.14753458 0.47795269
N 1.12025625 -1.63911333 -0.36754110
C 0.60721201 -0.48360052 -0.43827603
O -1.80727358 1.48904683 1.27759249
H -0.60623159 1.80385494 -0.33430505
H 0.84623024 0.29341145 -1.17324461
H -0.63648709 -0.74886051 1.18452936
H 1.80891336 -1.77831876 -1.09738364
