10

O 0.89348830 -1.48599271 -0.25116976
C 1.07269195 -0.64158480 0.76023503
C 0.39849494 0.62349163 0.39432654
C -1.06950411 0.51310197 0.09754476
N -0.14922437 0.90293027 -0.93882685
H 1.29828031 -2.32544517 0.00359319
H 0.04586812 0.11194437 -1.54769072
H -1.49456523 -0.49101695 0.07553493
H 0.73486923 1.50175089 0.93867491
H -1.73039880 1.29082043 0.46777782
