10

O -1.0411955 -0.24247135 1.504887
C 0.7766268 -0.04556208 0.033674374
C -0.07286505 0.04571035 -1.1971177
C 0.1383088 -0.72374475 1.176905
N 0.1977158 1.2265077 -0.4191196
H -0.60686713 1.4301642 0.17067116
H 0.4172562 -0.008146791 -2.166023
H -1.0671704 -0.39316723 -1.1424924
H 1.8506061 -0.15625256 -0.069463454
H -0.5924157 -1.1330376 2.1080787
