10

C 0.02138397 -0.54719854 -1.27454116
N 0.20218328 -0.02684548 0.06296917
N 1.13851876 0.58998173 1.84636459
C -0.21820832 0.91653087 2.03910711
N -0.74596463 0.50723522 0.87286650
N 1.33921698 0.04415710 0.68866099
H 0.99739361 -0.89114297 -1.61614927
H -0.68186326 -1.38331690 -1.26170811
H -0.34400265 0.24169380 -1.93616906
H -1.70865765 0.54890505 0.57859905
