10

C 0.25721043 -0.624571 -1.4357269
N 0.11558209 -0.06851526 -0.10562633
N -1.022894 0.41228577 0.3640673
C -0.6621309 0.7857574 1.5785247
N 0.6390434 0.5396801 1.8281909
N 1.1149768 -0.0042995615 0.74544424
H -0.38708934 -1.4995377 -1.536024
H 1.3023283 -0.90734595 -1.5553595
H -0.020326598 0.12712339 -2.1743996
H -1.3367001 1.2394227 2.290909
