10

N 1.5817132 1.0119935 0.28101665
C -1.303586 -0.72961706 -0.31451505
N -0.6576028 0.9059885 0.98971623
O -1.778559 0.1006086 0.57917094
C 0.33989054 0.45777956 0.26017797
O -1.8051041 -1.6534033 -1.0173508
N -0.011578655 -0.5802475 -0.5634011
H 2.3433754 0.38525185 0.07121047
H 1.7484608 1.6392175 1.0517231
H -0.45700973 -1.5375714 -1.3377485
