10

N 1.81137640 0.89813670 -0.20422487
C -1.18944936 -0.54007935 0.26111150
N -0.50367279 0.56301179 0.25062565
O -2.46863392 -0.69645790 0.55505068
C 0.72476194 0.07125453 -0.11867252
O -0.53992389 -1.63415458 -0.05698508
N 0.79087899 -1.22067036 -0.33202529
H 1.58305314 1.85557783 -0.42523459
H -2.80656678 0.18155673 0.77963688
H 2.59817639 0.52182472 -0.70928233
