10

O 1.597552 1.490953 -0.033574503
C -0.57597744 0.7258137 -0.77113473
C 0.6414186 0.753693 0.08918239
C 0.5784766 -0.5511202 0.7971256
O -1.6833938 0.09705766 -0.04949188
C -0.878991 -0.7061145 -0.7511762
H -0.8307251 1.4141755 -1.5690705
H -0.15516816 -0.67467713 1.5895494
H -0.23906684 -1.5289215 -0.27997348
H 1.5458753 -1.0208596 0.9785639
