11

N -0.7301428 -0.75803715 1.5588306
C -0.19183917 -0.13272521 0.42191288
C -0.12806399 -0.6122902 -0.86862224
N 0.40158898 0.394843 -1.6174668
N 0.6901085 1.4828107 -0.90697604
C 0.33407903 1.1791137 0.33187255
H -0.2212189 -0.53221947 2.4021175
H -0.7770741 -1.7634633 1.4608068
H -0.41594654 -1.5593054 -1.2993004
H 0.5812179 0.39478597 -2.6074653
H 0.45729116 1.9064871 1.1242901
