11

N -0.20756263 1.3670478 -1.0100775
C 0.08147076 -0.32554346 0.34698135
C 0.800775 -0.4728194 -0.863886
N 0.6149779 0.5569208 -1.6747363
N 0.09859276 -1.1847746 1.4576343
C -0.5663673 0.8851228 0.21130954
H -0.48414037 2.236673 -1.4321684
H 0.13824423 -2.1600373 1.1913359
H -0.6924181 -1.0412114 2.0704029
H -1.2301655 1.4261787 0.868575
H 1.4465933 -1.2875574 -1.1653711
