10

C 0.25918582 -0.6229892 -1.4346635
N 0.11334344 -0.070619226 -0.10510669
N -1.0271487 0.4056573 0.36474633
C -0.6636843 0.78315437 1.578596
N 0.63777953 0.54257476 1.8285172
N 1.1144358 -0.0016623907 0.7437923
H -0.382154 -1.4993377 -1.5398717
H 1.305165 -0.9031757 -1.5538265
H -0.019790439 0.12848061 -2.173628
H -1.3371322 1.2379172 2.2914443
