11

N 1.0531367 -1.1901116 -0.3337815
C 0.45035112 -0.41334888 1.666365
C -0.6690555 1.3959092 -0.57469475
O 0.6066856 1.2308846 -0.08252158
C 0.2746381 -0.16017132 0.21392572
O -1.2308421 2.3779283 -0.942207
N -0.9923495 0.043092757 -0.48973364
H -1.8985842 -0.27473822 -0.17645074
H 0.94776046 -1.2831742 -1.3417232
H 2.0177636 -1.1537633 -0.041064605
H -0.5595044 -0.5725074 2.1018863
