11

N -0.54299664 -0.053192195 -1.0185095
C -0.77343816 -0.58905536 1.5728619
C -0.058438167 -0.1420543 0.4088315
O 0.83869797 0.9804256 0.15388231
C 0.45472476 1.123988 -1.107071
O 0.7078009 1.8546437 -2.0001082
N 0.3740366 -1.346074 0.96478295
H -0.47943255 0.013175151 2.4381387
H -1.5208648 0.2120432 -1.133557
H -0.31684038 -0.8491338 -1.613989
H 1.3167505 -1.2047664 1.3347371
