9

O -1.1187286 0.36602286 -1.0517812
C 0.07349841 -0.09242567 -0.5142057
C 0.48576888 0.7425324 0.7044638
O -0.2294583 1.6266816 1.0997072
C -0.004462671 -1.506406 -0.0661926
N -0.05094599 -2.5940576 0.3171806
H -1.4804387 1.0004687 -0.40886256
H 0.877837 -0.028820865 -1.2619715
H 1.4469298 0.48600477 1.1816618
