9

O 1.2327957 0.632014 0.6489195
C -1.1114558 1.0986228 -0.5889998
C 0.008998632 0.11953746 0.5208179
O 0.95289606 -1.2081462 -1.1774215
C -0.04447376 -0.9708109 -0.5405943
N -1.3089528 1.5483401 0.4944438
H -0.45409086 -0.13086711 1.4696505
H 1.725012 0.41521633 -0.16490108
H -1.0007291 -1.5039066 -0.66191477
