12

N 0.19818719 1.2217213 -0.0883792
C 0.06258913 0.6619448 -1.3551614
C 0.42664286 0.55212164 1.1293255
N 0.34777883 -0.6659093 -1.4678775
C -0.23782869 -0.54180884 1.4718264
O -0.25514257 1.3581809 -2.3043385
N -0.6974428 -1.6610851 1.6618106
H -0.026153792 2.2038052 -0.07256683
H -1.5266025 -1.709475 2.2528937
H 1.1769459 0.943286 1.8135598
H 0.42569414 -1.2907026 -0.6821385
H 0.10533229 -1.0720788 -2.3589542
