12

N -0.2722085 -0.012551627 -2.050369
C -0.15928398 -0.037210777 -0.6533754
C -1.030724 -0.31381273 0.33417627
N -0.35404706 -0.104242034 1.5494107
C 0.93610245 0.33243215 1.331253
O 1.774093 0.6587621 2.1496587
N 1.051599 0.31430143 -0.055239215
H 0.28857815 -0.73127663 -2.4955914
H -1.2356019 -0.1214326 -2.3402834
H -2.047338 -0.6713449 0.29400316
H -0.76462805 -0.083545774 2.4653394
H 1.8134588 0.7699215 -0.52898306
