9

O -1.9672318 0.42313123 0.07900249
C -0.6571611 0.13345131 0.033724155
N -0.110565715 -0.8949228 0.65708005
N 1.17381 -0.7817558 0.32789224
N 1.4983293 0.22763205 -0.4505729
C 0.33878276 0.8442032 -0.6626685
H -2.3988767 -0.24168153 0.6319699
H 1.8610307 -1.4390285 0.6588136
H 0.26188254 1.728971 -1.2752411
