9

O -0.71021049 1.05993997 -1.70101557
C -0.56741948 -0.09334543 0.65583025
N 0.17458611 -1.33021948 0.77322113
N 1.33163295 -1.25779135 0.33562851
N 0.18448744 1.23505969 0.55635775
C -0.42692970 0.79286237 -0.44828618
H -1.46050823 -0.11350478 1.27524770
H 1.75067201 -2.18708982 0.49477150
H -0.27631063 1.89408898 -1.94175516
