17

C -1.5300591 2.2379553 0.13825855
N -0.6613602 1.1769203 -0.34216055
C -0.11087537 0.31803274 0.59337425
O -0.2227032 0.5223589 1.7972956
N 0.6011157 -0.7402893 0.08078498
C 1.0442609 -1.7855448 0.9799363
C 0.83195674 -0.9373444 -1.3375428
H -2.4639978 1.8609 0.5769209
H -1.0068102 2.807476 0.90980655
H -1.7650622 2.905523 -0.6932752
H -0.9387781 0.77689016 -1.2262298
H 0.5291665 -2.7363124 0.77789176
H 0.8270766 -1.475302 2.0020118
H 2.1238713 -1.9517984 0.87837
H 0.998153 0.023770852 -1.8337797
H 1.7382431 -1.537959 -1.4656297
H 0.0058019436 -1.4652777 -1.8360332
