9

O -0.60524994 -0.9252135 -0.58178985
C 0.55206805 0.7573255 0.520986
C -1.081785 0.31232 -0.7843704
O 1.3354352 1.3625634 1.1983677
C 0.5134382 -0.753519 0.29293534
N -0.52107 1.3165572 -0.22638766
H 0.3387538 -1.3085421 1.2171148
H -1.9486933 0.35895512 -1.4396355
H 1.4171028 -1.1204463 -0.19722034
