9

O 0.49037474 -1.06722023 -0.42591147
C 0.93340007 0.21079591 0.03937297
C -0.84818158 -1.02013113 -0.35065647
O -0.48583852 2.04911965 0.80070021
C -0.37098958 0.93478413 0.37187736
N -1.43154236 0.03492571 0.07453015
H 1.49323729 0.71135754 -0.75278754
H -1.34928812 -1.92961077 -0.67440977
H 1.56882799 0.07597915 0.91728456
