9

O -1.2238386 0.20279562 0.5441241
C -0.831975 -1.0604842 0.50963557
C -0.17509788 0.92304647 -0.1231054
O 1.9576442 0.34250197 -0.537368
C 0.773181 -0.110532984 -0.37619618
N 0.31604236 -1.3522133 -0.04325058
H -0.5731242 1.5204874 -0.9403698
H -1.495744 -1.7819597 0.974596
H 1.2529118 1.3163583 -0.0080657
