10

O -0.09910243 -1.8361604 0.476208
C -0.7637704 1.4046792 -0.4428349
N -0.8293776 0.12409362 -0.7109699
C 0.29208797 -0.70170254 -0.20820421
C 0.4901922 1.3827034 0.42440686
N 1.0579239 0.24722335 0.57468945
H 0.8894067 -1.037761 -1.0619743
H 0.8918859 2.2742412 0.8974077
H -0.393352 -1.5692191 1.3579975
H -1.5358943 -0.28809765 -1.3067261
