10

O 1.2404333 0.5099707 -1.7551795
C 0.4716463 0.08384948 -0.7378236
N -0.0614831 -1.0933659 -0.6058328
C -0.7488141 -1.0244656 0.59471565
C -0.6127619 0.2042461 1.1643529
N 0.18849684 0.9239343 0.28438887
H 1.3077425 -0.24217056 -2.360386
H -1.30001 -1.8763199 0.9690156
H -0.9895225 0.63776344 2.0783498
H 0.50427264 1.8765577 0.36839893
