10

O -1.9027339 -0.8341817 -0.14863756
C 0.34512055 -0.038463417 0.74809456
C -0.22671726 0.71710145 -0.6764095
N 1.5159421 0.30881995 0.20850727
N 1.205367 0.73530775 -1.0127898
C -0.5858924 -0.61157906 -0.4092129
H -2.0455573 -1.7905986 -0.13455726
H 2.4607763 0.038230684 0.45044845
H 0.08015016 -0.1260089 1.79506
H -0.846455 1.6013719 -0.82050335
