10

O -0.37858862 1.639673 -1.2163789
C -0.16863894 0.6075215 -0.35633522
C 0.5168289 -0.5740147 -0.5343718
N 0.40873888 -1.2368248 0.6507527
N -0.28873038 -0.5689365 1.5688654
C -0.649591 0.5577446 0.9720892
H -0.038584623 1.4004371 -2.085609
H 1.0520682 -0.98285127 -1.3775715
H 0.78666043 -2.1394653 0.8823752
H -1.240163 1.2967161 1.4961835
