10

O -2.05227151 0.60911835 -1.07712099
C 0.33229697 0.35983420 -1.15226396
C 1.28210439 -0.41065022 0.75935323
N 0.17421330 -0.50998917 1.42054001
N -0.93086410 -0.15473292 0.75218710
C -1.00498626 0.30193399 -0.54024585
N 1.40915100 0.02334594 -0.54178915
H 0.39305460 0.70968862 -2.17871687
H 2.18806199 -0.69335127 1.28275693
H -1.79076060 -0.23519750 1.27529961
