11

O -1.2738111 -0.17967622 1.9320017
N -1.1691265 -0.7675528 0.6706993
C -0.24015301 -0.22952309 0.0063205957
C 0.29460385 -0.46638805 -1.3774241
O 1.2581027 0.5857671 -1.171649
C 0.79234844 0.85825187 0.16408785
H -2.0040238 -0.6677957 2.3299563
H -0.3914009 -0.24568473 -2.201992
H 0.7734614 -1.4376832 -1.5464907
H 1.5617856 0.67547107 0.9228195
H 0.39821327 1.8748139 0.2716709
