11

O 0.6511441 -1.3731878 -0.94342077
N -0.7242405 1.1135623 0.79331374
C -0.22154735 0.16626781 0.13070768
C -0.71132195 -1.0453839 -0.6090096
O 0.045230106 2.1173291 1.361452
C 1.1782025 -0.2199813 -0.25445437
H -1.3232396 -0.8453277 -1.4946597
H -1.1857659 -1.8184129 0.0049893055
H -1.2350229 1.9130627 1.3626517
H 1.8395196 -0.48701474 0.57764715
H 1.6870413 0.4790864 -0.9292169
