10

C -0.9904646 0.3857689 -1.3107572
O -0.5411922 -0.39343172 -0.1923196
C 0.52478224 0.09362733 0.43395263
O 1.1161528 1.1031238 0.14275818
C 0.96237046 -0.7674814 1.6134533
O 0.40621024 -1.7757645 1.9457362
H -1.8512459 -0.15113017 -1.7067878
H -1.2766106 1.3901653 -0.9865543
H -0.20230673 0.4635556 -2.0639522
H 1.8523046 -0.34843332 2.1244712
