10

C -0.014216486 1.1057771 -1.0564399
O -1.0529445 0.463072 -0.6089817
C -0.6234545 -0.19425978 0.76099974
O 1.1537299 0.9150932 -0.6852011
C 0.64723754 -0.7903283 0.3873449
O -0.9881611 0.39922547 1.7585365
H -0.94269687 -1.3706348 0.63239694
H 0.70052874 -1.3545791 -0.5357365
H 1.3583801 -1.0260267 1.1746366
H -0.2384028 1.8526609 -1.8275553
