10

C 0.8113184 0.20516913 -0.0905585
O -0.17271702 0.9069796 0.6496078
C -1.047835 0.124073304 1.3036257
O -0.88043374 -0.10695727 -1.7698436
C 0.2562793 -0.2776291 -1.4126471
O -1.0057718 -1.0749369 1.353864
H 1.00057 -0.8020271 -2.0464268
H 1.196758 -0.6496401 0.47482803
H -1.7857043 0.7633352 1.8069942
H 1.6275357 0.9116333 -0.2694437
