12

N 2.1677086 0.38908353 -0.6964878
C 0.88652086 0.16399612 -0.282973
N 0.70370483 -0.8428409 0.5844155
C -0.5412353 -1.0229669 1.0062963
C -1.609549 -0.2375348 0.58778554
C -1.2916629 0.7652718 -0.32077762
N -0.058447268 0.98271465 -0.7689107
H 2.2890956 0.9650053 -1.5133563
H 2.8343878 -0.34809807 -0.5334507
H -0.6944941 -1.840196 1.711071
H -2.6208363 -0.39925098 0.9405714
H -2.0651922 1.4248163 -0.7141836
