12

N -1.72412218 -0.70924339 -1.23091268
C -0.57760495 -0.27518027 -0.67692168
N -0.55077472 -0.11629673 0.77448009
C 0.89267450 -0.28075413 1.09717880
C 0.37540574 1.03905882 0.95512048
C 1.28687814 0.50782167 -0.12239367
N 0.50048506 0.06978630 -1.26821838
H -1.68242543 -1.02789910 -2.18469180
H -2.40608777 -1.13549023 -0.62357557
H 1.32837147 -0.82960597 1.92107229
H 0.26575622 1.87396010 1.63460190
H 2.29144393 0.88384327 -0.27573964
