12

N -0.43960822 0.052037165 0.84896046
C 0.9934759 0.44739282 0.97245723
N 0.32401115 0.036567785 -1.3256745
C -0.6936085 0.22824025 -0.57826316
C 0.67263293 -0.93657655 0.86595684
C 1.3264446 -0.26756945 -0.31284133
N -1.9293528 0.6143021 -0.9439281
H -2.669494 0.5198207 -0.2665168
H 1.4483842 1.049707 1.7477341
H -2.1706517 0.5235414 -1.9168166
H 2.3445957 -0.4814372 -0.61564255
H 0.7931708 -1.7860259 1.5245744
