12

N -1.5240425 -1.0982175 -1.3420143
C -0.6204336 -0.4517719 -0.55166614
N -0.6924239 -0.6961235 0.76567197
C 0.21789593 -0.08801975 1.5132382
C 1.1947343 0.7542495 0.99600816
C 1.1567869 0.93535924 -0.38273996
N 0.26268905 0.3495276 -1.1688672
H -1.6437434 -0.74904805 -2.2784634
H -2.3215983 -1.5018611 -0.8788883
H 0.16287333 -0.2810203 2.5841305
H 1.9308137 1.2409254 1.6226794
H 1.8764485 1.5860007 -0.8790888
