11

O -1.8721647 -0.09060625 -0.10187564
C -0.62429225 0.49707606 0.08224368
C 0.2721601 0.074241556 1.2630246
O 1.36803 -0.18300912 0.33878303
C 0.54168284 0.0025499873 -0.7429623
N 0.70137906 -0.2613874 -1.9570283
H -1.7496753 -0.94856805 -0.5232739
H -0.75278705 1.5821974 0.024593236
H 0.5440347 0.83746177 1.9935181
H -0.050708722 -0.84925807 1.7525214
H 1.6223415 -0.660698 -2.1295438
