11

O 2.266635 -0.1246372 -0.049353037
C 1.0855916 -0.07214097 0.19634922
C 0.23323748 1.1143225 -0.1355784
O 0.48420694 -1.040283 0.90349394
C -0.9335118 -0.9696349 1.072173
N 0.22381015 1.2650092 -1.4328858
H -1.1898053 -1.812613 1.713441
H -0.2272512 2.0741503 -1.8433864
H -1.4519135 -1.0653664 0.11167148
H -1.2195272 -0.03025007 1.5496804
H 0.7285281 0.66144365 -2.0856056
