11

O 1.0275766 1.0015051 -0.2693199
C 0.12544535 0.7943029 0.7973407
C 0.5671184 0.20330058 -1.318507
O -0.0734145 -0.9287353 -0.7333842
C -0.42521185 -0.59130365 0.53764254
N -1.0810776 -1.2860956 1.3539327
H 1.4170792 -0.13430242 -1.912734
H -1.3626045 -2.1735177 0.9451606
H -0.6904975 1.5308548 0.7931888
H -0.16584432 0.73777026 -1.9399632
H 0.661431 0.8462209 1.7466432
