11

N -0.038221274 1.6337267 -1.2767861
C -0.2491079 0.5887163 -1.9373158
C 0.50256723 0.32405525 -0.73660564
C -0.18627252 -0.2744681 0.4503424
N -1.4328138 -0.5199409 0.3682129
N 0.66419464 -0.55800915 1.5050447
H 0.23228885 -0.7917725 2.3880577
H 1.5857182 0.20225781 -0.7742374
H 1.4783666 0.030190168 1.6015434
H -1.804512 -0.89268637 1.2437267
H -0.7522082 0.2579309 -2.8319829
