11

N 1.0358242 -0.016416227 -1.5507559
C 0.2822591 -0.025952822 -0.37382358
C -0.37392965 0.96935356 0.32118282
C -0.87494844 0.3152515 1.4708714
N -0.57348686 -0.9685319 1.4938358
N 0.13512757 -1.1565396 0.3570915
H 1.0269468 0.8973896 -1.9839005
H 0.7318312 -0.7072196 -2.2260163
H -0.48069713 2.0062122 0.036660563
H -1.4568238 0.7430617 2.2766461
H 0.5478972 -2.0566084 0.17820786
