11

N -0.46664141 1.01664552 -1.74624862
C 0.42635425 0.21391596 -0.82014363
C -0.27311528 -0.19353046 -2.01240855
C -0.12181978 -0.15806440 0.52250744
N -1.21004122 -0.81699629 0.57200689
N 0.68842547 0.21796787 1.57995211
H 1.48958506 0.45444596 -0.85408976
H -0.56881294 -0.94533584 -2.72676818
H 1.25658628 1.04090846 1.44531002
H -1.50822048 -0.98514939 1.53452276
H 0.28770025 0.15519263 2.50535928
