9

N 0.862183 -1.0693271 0.06431291
C -1.0713336 -0.011276561 -0.15582666
N -0.30115995 1.1756713 -0.19702496
C 0.37340432 0.14666544 0.57923
O -0.7186835 -0.9350968 -1.0032431
H 0.11376033 1.2684914 -1.1220983
H -1.9935793 -0.08641745 0.4156408
H 1.8911895 -0.99360275 -0.07272973
H 0.84421927 0.5048923 1.491739
