10

C -0.34173467 1.18840620 -0.56731175
C -0.47954946 -0.08764995 -1.20505479
N -0.82491332 -1.16971595 -0.46569619
N -0.48491984 -1.32416391 0.71550906
C 0.53758169 0.88911624 0.40714212
C 0.60052134 -0.36649192 1.13488264
H -0.63585918 2.14789802 -0.97706879
H -0.39186711 -0.22953006 -2.27800702
H 1.57973618 -0.85282399 1.03141506
H 0.44100435 -0.19504462 2.20419022
