10

C 0.61250144 0.24627924 1.1606418
C 0.9379578 -0.60390425 0.028658716
N -0.4159316 1.2913637 0.81233686
N -1.1905837 0.9175116 -0.07920356
C 0.37847382 -0.5318083 -1.19368
C -0.96636134 -0.17298917 -0.8520726
H 1.496984 0.8040551 1.4844245
H -1.8378286 -0.69078326 -1.2412753
H 0.71798754 -0.9242216 -2.1454031
H 0.26680097 -0.33550322 2.0255733
