10

O 0.1225808 1.3796929 -0.8657103
C -0.14010318 0.35987017 -0.20438379
C 0.9029582 -0.4822747 0.26399195
O 2.1958704 0.060366962 -0.47928205
C -2.6236072 -0.2856583 0.4742014
C -1.5005832 0.012132472 0.16954014
H -3.6254292 -0.54183215 0.7426956
H 1.7524025 0.8421814 -0.9371983
H 2.0416195 0.21877582 0.5931782
H 0.8742916 -1.5632546 0.24296702
