10

O -0.95306206 1.8519955 0.9984948
C -0.29597428 1.1061089 0.02693795
C -0.139724 -0.33842245 0.4646159
O -0.5653187 -0.7051838 1.5390317
C 0.53749317 -1.2339578 -0.46067458
C 1.1021248 -1.9470304 -1.248566
H -1.1498576 1.239314 1.7256966
H 0.7074273 1.5065467 -0.18143314
H -0.84455806 1.1143577 -0.9271056
H 1.6014494 -2.5937285 -1.9369977
