9

N -1.5786468 -0.41775787 0.6844476
C -0.75161046 0.0879815 -0.1750092
N 0.47170174 -0.16616957 0.30632207
C 1.6283036 0.22135232 -0.32765955
O 2.7496526 0.014308036 0.070527874
H -0.39617604 -0.72285926 1.231802
H -0.97584 0.6133819 -1.1025372
H -2.5830486 -0.39353424 0.59304714
H 1.4356639 0.76329714 -1.2809408
