9

N -0.8063811 1.8460026 -0.12908436
C -0.10903408 0.81158644 -0.34878454
N -0.23529096 -0.30864063 0.45769915
C 0.47957852 -1.472782 0.3002391
O 0.3646794 -2.4401515 1.0108414
H -0.5962132 2.5725539 -0.804487
H 0.62901175 0.6824898 -1.147225
H -0.9042241 -0.26175877 1.2168345
H 1.1778735 -1.4292995 -0.5560329
