11

N 1.3701861 -0.562537 -2.643834
C -0.62608546 -0.11340463 0.13284771
C -0.53631324 -1.3542447 0.9389104
C 0.58283085 0.61430866 -0.43896323
C 1.0340991 -0.03730799 -1.6722243
O -0.8225015 0.36787274 1.4979857
H 1.3905092 0.59540087 0.30172125
H -1.7410489 0.21006282 1.7634836
H 0.34548613 1.6618189 -0.6570167
H 0.51999426 -1.4120151 1.2639414
H -1.5171564 0.030045616 -0.48685217
