11

N 0.58863046 0.58440725 -2.91473809
C 0.40917275 0.72235854 -1.78265604
C 0.16482540 0.87377865 -0.34510726
C -0.47287146 -0.38814454 0.21961001
C 0.28965430 -1.60764979 0.57855512
O -0.39149475 -0.30680961 1.67582818
H -0.47843344 1.74639110 -0.18410074
H 1.11523701 1.05169133 0.17101304
H -1.50301769 -0.51376036 -0.12914885
H -1.06636936 -0.88229754 2.06631549
H 1.34466683 -1.27996511 0.64442930
