11

N -2.8274963 0.33420584 -1.1507311
C -1.7246255 -0.003564344 -1.0758805
C -0.31847146 -0.4076986 -0.94869953
C -0.018352767 -0.55666244 0.5355008
C 0.62500954 0.6418251 1.1242231
O 1.7145134 -0.2119349 0.7259657
H -0.18498658 -1.3613393 -1.4723787
H 0.6710511 1.5618441 0.5384627
H 0.5509907 0.8119017 2.1989183
H 1.2002017 -1.1543019 0.9666541
H 0.31216595 0.34572488 -1.442035
