11

O 0.46828451 0.78802810 -2.02439603
C -0.37671707 -0.65859577 1.17942558
C -0.39982766 -0.76728129 -0.31422951
N 0.28700760 0.60674713 1.50190384
C 0.19932411 0.34180763 -0.77988521
C 0.59810850 1.14652299 0.38370391
H 0.17476967 -1.47466979 1.66323822
H -0.81979746 -1.58824052 -0.88313541
H 0.13926336 0.14894630 -2.66938828
H 1.10678987 2.10518998 0.31326783
H -1.37720572 -0.64845511 1.62949511
