11

O 1.5631062 1.341711 -0.83364785
C -1.0359228 -0.88564426 0.3304647
C 0.62534404 0.53725094 -0.29170159
N -0.3998899 -0.3808748 1.5495977
C -0.32367775 -0.25115892 -0.8243026
C 0.52744776 0.4155885 1.1698558
H -0.9687362 -1.980941 0.33012053
H -0.54620814 -0.4134001 -1.8722342
H -2.1041257 -0.63867944 0.3703881
H 1.1727558 0.9442178 1.8676301
H 1.4899068 1.3119304 -1.7961708
