12

O -0.79674619 -0.27947238 0.83471408
C 0.57045377 -0.65542365 0.90673883
C 1.17129518 0.11877933 -0.25704155
O 0.11587742 0.09409107 -1.20234951
C -1.10877774 -0.02586731 -0.51306507
O -1.90617983 1.08502539 -0.62154048
H -1.68851435 -0.84842811 -0.94973709
H 0.68171710 -1.73804486 0.76475916
H 0.95674216 -0.36772381 1.88764316
H 1.41713462 1.15041241 0.02924034
H -1.46368131 1.81804664 -0.17302982
H 2.05067892 -0.35139492 -0.70633185
