12

N -2.1330538 0.5624412 -0.08040597
C -0.7867797 0.19845447 -0.042612858
N 0.15078859 0.81974876 0.6360859
C 1.3064218 0.16158788 0.3075543
O 2.4939027 0.5381473 0.828692
C 1.0852141 -0.8679171 -0.55468595
N -0.29896757 -0.8328052 -0.7663934
H -2.2950397 1.3108122 0.5815473
H -2.7564945 -0.20943765 0.117725454
H 2.3092551 1.2771419 1.4232581
H 1.736726 -1.606986 -0.9908936
H -0.8119735 -1.3511875 -1.4598716
