12

N -0.67321090 0.76604997 0.28366672
C -0.59296824 -0.30277615 -0.41467616
N 1.29306745 -0.47355217 0.84427993
C 0.47218849 0.71673902 1.18099629
O 1.21729623 1.87812487 1.18803827
C 0.64013312 -1.07668982 -0.06188657
N -1.49776479 -0.72710037 -1.33428628
H 0.12218206 0.57135051 2.21269327
H -2.18286393 -0.04899384 -1.62769051
H 1.43010209 2.09573218 0.26785849
H 0.96573817 -2.01407161 -0.50631723
H -1.19390023 -1.38481232 -2.03267655
