12

N -1.2496381 -1.4449056 -0.95023495
C -0.51727766 -0.5209443 -0.27619168
N -0.6746837 0.74761236 -0.32617453
C 0.5837223 -0.8827847 0.6729197
O 1.0621587 2.2965553 0.13509539
C 0.27333274 1.2833034 0.6401958
N 1.0810345 0.16496973 1.1887949
H -0.27500427 1.7162882 1.4886601
H -1.8298719 -1.0930945 -1.6951061
H 0.9397052 -1.884709 0.90017676
H -0.85184854 -2.3588426 -1.0886195
H 1.4583709 1.9765515 -0.68951577
