12

N 0.5298899 -1.4356258 0.46145415
C 0.17534126 0.7564953 0.1630027
N 0.31238768 2.129712 0.19525115
C 0.9767209 -0.20181686 0.8048879
O -1.4088694 -2.103193 -0.75319844
C -0.5057344 -1.1445628 -0.44528666
N -0.74627334 0.1693207 -0.6129236
H -0.5218904 2.616554 -0.095561735
H 0.7180022 2.503866 1.039921
H 0.67004794 -1.5472026 -0.8419156
H 1.878977 -0.06985866 1.3874624
H -2.0785995 -1.6736878 -1.3030932
