10

O -0.41417808 -0.98521486 -1.24254140
C -0.13166661 -0.29033438 0.73037133
C -0.82780255 0.21568656 -0.56276572
O 0.24007107 0.60174740 1.70590563
C 0.73574743 -0.45691484 -0.54839133
O 0.40201766 0.90653464 -0.92262898
H 1.72711310 -0.84343771 -0.77916608
H -0.52695972 -1.19918460 1.18369452
H -1.78807367 0.66928930 -0.80384854
H 0.58373123 1.38182833 1.23937055
