10

N -0.8266457 0.8719946 1.3505179
C -0.17255962 0.1768 0.34870988
C 0.35227394 -1.0671196 0.21334986
N 0.98908967 -1.146775 -1.0250874
C 0.81158674 0.009218995 -1.552046
O 0.112730674 0.88258594 -0.77448386
H -1.5038376 1.535583 1.0047327
H -1.2315812 0.26632705 2.052139
H 0.33210582 -1.9022152 0.89724797
H 1.1368372 0.37360004 -2.5150802
