12

O -0.6605386 1.4900068 -0.8138712
C 0.18759695 0.41717276 -1.1331949
C 0.48157436 -0.40288657 0.12216004
O 1.0354443 0.45358565 1.0854336
C -0.7907919 -1.0149553 0.6690168
O -1.1299216 -0.8245618 1.8120664
H -0.25536245 1.9138345 -0.043532707
H 1.1403501 0.7561868 -1.5637336
H -0.32547742 -0.1977658 -1.8809258
H 1.1681474 -1.22805 -0.13174531
H 0.5263175 0.293345 1.8971803
H -1.377339 -1.6559117 -0.01885408
