10

N 0.6059565 -0.8088094 1.5066211
C 0.014458307 0.16942957 0.7435577
O -0.39965308 1.2187419 1.1849954
N -0.10529511 -0.17687915 -0.606012
C -0.64117706 0.67394865 -1.5606707
O -0.76893103 0.3476023 -2.71649
H 0.8330763 -0.51559955 2.444803
H 1.2502362 -1.4561067 1.0804765
H 0.13414863 -1.1040306 -0.93153715
H -0.92281955 1.6517028 -1.1457435
