10

N -0.05402964 -0.06860081 0.4116147
C 0.31827062 0.5404096 1.5595127
O 0.1166251 -0.3751812 2.518581
N -0.30158064 -0.29639784 -1.8742622
C -0.018832305 0.58072954 -0.84552604
O 0.1899801 1.7564452 -0.99429786
H 0.37728196 0.04466234 3.3463929
H -0.04851856 -1.2676642 -1.7784655
H -0.14751303 0.09953053 -2.789977
H -0.43168375 -1.0139333 0.44642732
