10

N -1.2525227 1.2250365 0.74664384
C 1.1736919 -1.0408148 -0.6439666
O 0.9737957 1.0571458 1.23899
N 0.070195496 -0.30534658 -0.38280267
C 0.009346651 0.6940939 0.61496675
O 1.0641732 -1.8813522 -1.639952
H 2.0853493 -1.7808589 -0.99312294
H -1.3500148 1.8403798 1.5409547
H -0.71374124 -0.469839 -1.0121856
H -2.0602734 0.6615554 0.5304743
