9

O -1.2853016 -1.4928005 -0.9579142
C 1.027537 0.466822 0.63738126
N 0.6280145 -0.8377687 0.18802485
N -0.01980802 1.4154326 0.23389791
C -0.4858222 -0.60919434 -0.3741137
N -0.9058923 0.7743757 -0.35912228
H -2.0652544 -1.0195287 -1.2865587
H 1.9752218 0.78670585 0.19262299
H 1.1313053 0.515956 1.7257819
