9

O 1.585393 -0.2804646 -1.5380217
C 0.620198 -0.14951174 -0.6142761
N 0.34917676 0.99240905 -0.017555695
N -0.6676926 0.6256151 0.8032048
C -0.936911 -0.6786953 0.6524848
N -0.13313237 -1.2116519 -0.24733312
H 1.9905605 0.5891404 -1.6533263
H -1.0960492 1.306408 1.4095818
H -1.7115428 -1.1932491 1.2052416
