12

N 0.06750268 -1.0211955 -0.9230088
C -0.48032477 1.0743619 0.16546673
C 1.3441094 -0.3503524 1.0635098
O -1.7203872 1.031387 -0.47627965
C 0.03749504 -0.3591677 0.37541175
N 2.3906307 -0.34252542 1.5495799
H -0.68438935 -0.89013064 1.003876
H -0.6120657 1.5787493 1.1250515
H 0.17513557 -2.0255773 -0.8323325
H 0.27120697 1.6378092 -0.41262186
H 0.8494733 -0.6829047 -1.4769379
H -1.6383865 0.34954572 -1.1617148
