12

N 1.629891 1.0538784 2.662822
C 0.5708225 -0.3678408 0.79589456
C 1.1482114 0.35951617 1.8608171
O -0.8353188 -0.49878246 -2.054213
C 0.19011182 -0.14342465 -1.2421432
N -0.80553824 0.08425551 0.38696733
H 0.51905435 0.8905602 -1.2818401
H -0.87520367 1.0920159 0.50905913
H -1.5142177 0.18900359 -2.0296755
H 0.9727147 -0.8710663 -1.3748765
H 0.5923729 -1.4464775 0.88131213
H -1.5929003 -0.3416381 0.8858761
