9

O 1.7450114 0.53901577 -1.6404144
C 0.89054453 0.3530389 -0.8187944
N 0.26583576 -0.81247675 -0.44535017
C -0.6737439 -0.5565932 0.5560603
C -0.6144525 0.7586728 0.7859053
O 0.32647738 1.3345964 -0.033753235
H 0.48688596 -1.6988343 -0.8643339
H -1.2828233 -1.3276482 0.99890566
H -1.1437353 1.4102285 1.4617747
