11

O 1.5673851 -0.412586 1.9687555
C 0.45311266 0.035259522 -0.055617392
C 0.2900567 0.8052328 -1.2835001
C -1.6771983 0.15645182 -0.49079156
N -0.80592924 -0.3163047 0.4239902
C 1.6427418 -0.046673406 0.81742275
N -1.1005487 0.74925864 -1.5101331
H -0.98338753 -0.778797 1.3025135
H 0.77324086 -0.48243758 -1.1402652
H -2.7468286 0.023698876 -0.37278187
H 2.5873551 0.26689717 0.34040743
