11

O 0.19777351 -0.70242528 -2.19419274
C 0.75112829 0.14255156 -1.53158588
C 1.24624761 0.37804160 0.94600498
C 0.23633900 0.59903486 -0.19066945
N 0.56345651 -0.36653593 1.86934689
C -0.65377289 -0.64798525 1.39213648
N -0.95158643 -0.12254939 0.21565324
H 1.67456070 0.65156935 -1.85820492
H 0.04957832 1.68230698 -0.22163692
H -1.74562632 -0.35320913 -0.36241033
H -1.36809824 -1.26079941 1.93555851
