12

O -1.6500862 -0.36068562 0.31342104
C 0.46197128 0.5268059 -0.707411
C -0.6828789 0.5253164 0.6074529
O -0.22751264 -0.36374888 -1.6263347
C 0.6593716 0.015229456 0.7631404
O 0.8252055 -1.352141 0.8567968
H 0.9871281 -0.28027847 -1.5011654
H -0.97213143 1.5291477 0.90658605
H -1.4034748 -0.64088756 -0.65927655
H 0.6542183 1.5522822 -1.0089662
H -0.05629466 -1.7332308 0.7429681
H 1.4044839 0.5821906 1.3127887
