9

C 0.15033399 -1.627151 -1.4385929
C -0.61763215 1.281204 1.3232316
C 0.047085542 -0.560613 -0.4951897
C -0.2582737 0.27462342 0.32982093
O 1.3895818 -1.6411892 -1.917605
H -1.42309 0.91625106 1.9681194
H -0.95893294 2.1975996 0.8298047
H 1.4284278 -2.372082 -2.549489
H 0.24249956 1.531357 1.9498999
