9

C -0.58663080 -0.57725200 -2.01554327
C -0.20642668 -0.19779864 -0.69280629
C -0.10918724 0.11690144 0.47467606
C 0.01591111 0.49417093 1.87867956
O 0.51463153 -0.68359753 -2.75127196
H 0.00879806 1.58463417 1.98152198
H 0.22576356 -0.94240304 -3.63702909
H 0.95245702 0.11809937 2.29887973
H -0.81531659 0.08724539 2.46289304
