11

N -0.7376631 -0.1317292 -0.9085292
C 0.36049297 -2.1496935 -1.6392622
C 1.2679029 0.6218368 0.46842432
N -0.2019294 -1.1992925 -1.2024848
C -0.13752517 0.55127746 0.22143367
N -1.030993 1.5574455 0.65347034
N 0.687113 -0.2535283 1.1908823
H -1.9733076 1.199357 0.74449116
H 2.26771 1.0214523 0.34151986
H 0.22882624 -3.1917665 -1.3970149
H -0.73062634 1.9746412 1.5270694
