11

O 1.866168 0.12867187 -1.5233525
C -0.3219086 -0.67732704 1.0240549
C 0.9744985 -0.0023373547 -0.7147738
C 0.8933321 -0.8700765 0.45816424
C -0.36207822 0.7679571 -0.7535541
N -1.1334008 0.17650199 0.3246497
H -0.7062534 -1.1438564 1.92572
H -0.18027528 1.8365345 -0.5916691
H -0.84519595 0.6363198 -1.725662
H -1.854168 0.6966175 0.7955835
H 1.6692815 -1.5490055 0.7808394
