11

N -0.34778187 1.1050934 -1.2765898
C -0.84550864 -1.4349304 0.10090062
O 1.0662377 0.40281722 0.38157597
C 0.8202882 0.8920783 -0.853648
C -0.0014688628 0.032276534 1.1571208
O -0.5514382 -1.7158431 1.3070185
H 0.38910735 -0.096925214 2.1598923
H -1.1222447 -2.383869 -0.44307196
H -0.3019659 1.4748231 -2.219434
H -0.87789553 0.64915955 1.0376822
H 1.7726705 1.0753198 -1.3514466
