12

C 0.04597301 2.4089785 -0.1845264
N -0.50086313 1.154603 -0.3761102
C 0.49966383 -2.0789905 0.47449407
N -0.36056998 -1.176858 -0.19136184
C 0.09925501 0.019419398 0.11680635
O -0.4743687 3.4308782 -0.56954247
H 0.065440886 -3.0357811 0.7606914
H -1.3829075 1.1381512 -0.88247395
H -1.2580426 -1.4057156 -0.6162442
H 1.4976541 -2.1297746 0.037454586
H 1.0113357 2.3584936 0.34927276
H 0.75742936 -0.6834044 1.0815399
