12

C -1.1213098 -1.0152143 -1.7002772
N -0.99807113 -0.5858312 -0.32178
C 0.057927642 0.0224534 0.0092453435
N 0.24499246 0.46919903 1.3103601
C 1.3528627 1.1486269 1.7473952
O 1.4994079 1.538913 2.880845
H -2.0028508 -0.54035646 -2.146671
H -0.24586126 -0.7850687 -2.3260806
H -1.2941816 -2.0953891 -1.7254006
H 0.8963865 0.25071484 -0.66127735
H -0.49277833 0.28850693 1.9832431
H 2.1034753 1.3034462 0.95039815
