12

C -0.35514802 -1.11448485 1.69003260
N -0.52021582 -1.11830939 0.34272822
C 0.30882193 -0.38619000 -0.58152457
N -0.40132570 0.76517121 -1.11187971
C 0.20331613 1.87066275 -1.11333926
O -1.13275814 -1.60116209 2.48147533
H -0.28706617 2.74758076 -1.53295654
H 0.58041036 -1.04759562 -1.41603933
H -1.42922805 -1.42449726 0.00969503
H 1.23576278 -0.08993496 -0.06202184
H 0.58685125 -0.61816663 1.99272336
H 1.21057904 2.01692662 -0.69889314
