11

O -1.3977405 0.065587066 -1.9538772
C -0.91268396 -0.34625006 -0.8100542
C 0.83996034 -0.52078235 0.9415535
N -1.4691457 -1.4251659 -1.1135659
C -0.11745799 0.4013828 0.20424587
O 0.6164572 1.4117075 -0.438018
H 0.29170755 -1.3177589 1.449607
H 1.5552574 -0.9625017 0.24227448
H 1.3917954 0.060657233 1.6851547
H 0.057317227 1.8134387 -1.1151862
H -0.8554672 0.8196856 0.9078658
