11

N -1.348612 0.26677975 0.011508312
C -0.8677715 0.40636724 1.2279646
C 0.6095817 0.018909428 1.0858419
C -0.4174133 -0.11051756 -1.0429515
C 0.85966486 -0.28755355 -0.3805181
O 0.60931045 0.8399225 -1.232497
H 1.2392255 0.83485603 1.4560047
H -0.80395794 -0.617983 -1.9208312
H 0.81002235 -0.84857184 1.7278917
H 1.6263419 -0.97272694 -0.72956896
H -2.3163924 0.47051775 -0.20284458
