11

O 0.13190964 1.54312756 1.95562661
C 1.11052912 -0.54219348 -0.79003028
C 0.91945929 0.84381372 -0.21300423
C -0.06561206 0.95120488 0.92622482
N -1.28835748 0.24108066 0.73176340
C -1.18173554 -0.82526097 0.05144016
N 0.01615452 -1.26886043 -0.56660154
H 0.54522361 1.41770976 -1.07742123
H 1.87196042 1.30095267 0.06838376
H -0.01158670 -2.20446546 -0.95532336
H -2.04794507 -1.45710872 -0.13105830
