11

O -0.27856764 1.6405582 2.1652696
C -0.21255177 0.86935216 1.2339708
C 0.75207835 1.0187514 0.13510951
C 0.77989626 0.13502456 -0.8719725
N -0.10302086 -0.92148715 -0.87686056
C -0.99331415 -1.0439494 0.15528283
N -1.084544 -0.2481171 1.15174
H 1.4342808 1.8588665 0.16441956
H 1.463376 0.1875019 -1.7128417
H -0.09951545 -1.5941217 -1.6241324
H -1.6581178 -1.9023792 0.08001468
