11

O 1.8410839 0.7343149 1.705662
C 0.9931088 0.27699903 0.97463536
C -0.08101251 0.22926041 -1.3503832
C 0.9403117 0.62327194 -0.48318735
N 0.00087651674 -0.60918933 1.4225701
C -0.92932636 -0.9349478 0.5964881
N -1.0679649 -0.47780338 -0.6838094
H -1.6937922 -1.6433679 0.9131941
H 1.8108113 1.1309452 -0.8917493
H 0.053910296 1.4584711 -0.9883194
H -1.8680061 -0.7879543 -1.2151008
