9

O 0.84422857 2.0387864 -0.37102953
C 0.6856598 -0.2763258 0.06857251
N -0.1483961 -1.2138644 0.310177
N -1.2846298 0.9277312 -0.27433148
N -0.78679025 -2.0762641 0.8272621
C -0.03927702 0.9859494 -0.22117475
H 0.25915158 2.799447 -0.51670504
H 1.7396607 -0.5543093 0.0632659
H -1.2696073 -2.6311502 0.11396333
