9

O 1.6820476 0.92895347 0.6054409
C 0.5640253 0.30789548 0.194764
N 0.42934385 -0.2476256 -0.99771947
N -0.81066483 -0.7283699 -0.95572364
N -1.4797513 -0.5298562 0.15647365
C -0.6245282 0.1373586 0.92557853
H 2.3260517 0.893526 -0.11464727
H -1.2109852 -1.2185732 -1.7388902
H -0.8755389 0.45669132 1.9247231
