11

N -0.11009363 -0.85832958 1.00906791
C -0.40742231 -1.03002213 -0.42510151
C 1.71970754 -0.35940303 0.00765058
N 1.34383875 -0.84880733 1.11329302
C -0.48789564 0.25679259 0.09837545
N -1.39761341 1.26296435 0.25748380
N 0.62027522 -0.04366390 -0.87141986
H -1.98368322 1.41333545 -0.54710893
H -1.02880859 -1.73872605 -0.96205426
H 2.74315407 -0.17904336 -0.30156492
H -1.01145863 2.12490295 0.62137863
