12

O 1.0431885 1.1036133 -1.0107952
C 0.6017762 1.0149989 0.31988177
C -0.44663605 -0.089639485 0.4476163
O -1.491291 0.18817407 -0.4464489
C 0.15474357 -1.4379811 0.11263758
O -0.3309293 -2.1427522 -0.73806036
H 0.23935607 1.1369178 -1.5499647
H 0.1636631 1.9582908 0.6737714
H 1.4754499 0.789053 0.94273955
H -0.8058557 -0.1344885 1.4902332
H -1.6465483 -0.63590163 -0.93736756
H 1.043083 -1.7502851 0.6957572
