12

O 0.34782030 1.14367336 -1.01521274
C 0.62101929 0.87067337 0.36882934
C -0.06583373 -0.20130624 -1.26329258
O -0.16498430 1.58253667 1.24101424
C 0.23396583 -0.61159979 0.18094002
O -0.86795487 -0.90530097 1.01943406
H 0.54626330 -0.68907893 -2.03058749
H -0.94294773 1.03939076 1.43827238
H 1.66928761 1.07513458 0.60426372
H -1.29808242 -1.70023279 0.69097379
H -1.12594497 -0.26803458 -1.53786708
H 1.04739169 -1.33585560 0.30323262
