10

O 0.43084724 -0.69448285 2.06641191
C 0.59400405 -0.69717284 -0.30218384
C -0.58475554 0.12428259 -0.49008222
N -0.87642018 -1.08984715 -0.48430747
O -0.57153225 2.46774392 -0.65146744
C -1.22488645 1.45589812 -0.61358508
C 1.11754004 -0.88154477 1.09222426
H 1.26436219 -0.92045592 -1.12881773
H -2.32588783 1.43346331 -0.65406470
H 2.17672873 -1.19788447 1.16587239
