10

O 1.5683306 1.8474046 -0.9839992
C 0.048473995 -0.9416955 0.2026467
C 0.5116841 1.3913113 -1.3412327
N -0.98549086 -0.6519423 -0.8911857
O -1.1951351 0.21610884 1.8608984
C -0.027885893 0.13862136 -0.7599818
C -0.4371966 -0.6854032 1.5993912
H -0.050610844 -1.3776807 2.3731346
H -0.1340136 1.8593056 -2.10176
H 0.7018441 -1.79603 0.042088166
