11

C 0.49303895 1.22926344 -0.34773099
N 0.01553190 0.00529375 0.01635576
C -1.26582616 -0.31339213 0.62305275
N 1.98178102 -0.21747889 -0.92998207
C 0.99046481 -0.86201101 -0.38104460
N 1.66496637 1.11550103 -0.90966070
H -1.58154903 0.51994246 1.25357264
H -0.04196663 2.15322716 -0.18095868
H -2.02199877 -0.49463049 -0.14585371
H -1.15893813 -1.20417667 1.24580366
H 0.92449533 -1.93153865 -0.24355402
