10

N 1.4791623 0.49775577 0.92237586
C 0.22388953 0.62345535 0.37605932
O -0.4430632 1.6328584 0.44030175
N -0.23304155 -0.54701775 -0.2313868
C -1.4585639 -0.6412148 -0.86972576
O -1.8564072 -1.6708257 -1.3583609
H 1.8788841 1.3739716 1.2230477
H 2.127451 -0.16955304 0.534376
H 0.28839618 -1.4096546 -0.1611553
H -2.0067072 0.3102245 -0.87553185
