10

N -0.53247595 -1.1937852 1.2072514
C 0.60768783 0.7688802 -1.40822
O 0.010545231 1.0214986 -2.401399
N -0.23484178 0.9597303 0.19201203
C -0.11765825 -0.33715802 0.25508156
O 0.48822245 -0.77619535 -0.79922426
H 1.6281465 1.0386529 -1.1197006
H -0.7555192 1.5301381 0.84774023
H -0.8277633 -0.8505777 2.1048725
H -0.26634368 -2.1611836 1.1215861
