10

N -0.68201732 -0.71235846 -1.37252528
C 0.44472495 1.54129541 1.05601981
O 0.60778232 2.72041949 1.11808217
N 0.25159911 -1.14704543 0.79062766
C -0.10241305 -0.40069653 -0.16756581
O 0.04238248 0.96438822 -0.11344163
H 0.57980257 0.82044941 1.87381099
H -0.63918019 -0.00008743 -2.08664727
H 0.07605666 -2.12683210 0.59863650
H -0.57873746 -1.65953284 -1.69699711
