10

O 0.8237432 0.93320787 -1.7085602
C -0.019412097 0.8143427 -0.60448474
C 0.20614521 -0.48915157 0.12141707
O 1.0226316 -1.3001767 -0.26139742
C -0.61587435 -0.7880794 1.365093
O -1.4409858 -0.023165148 1.7896539
H 1.3500327 0.12269099 -1.7475257
H 0.13540152 1.6357495 0.11070843
H -1.079274 0.8599832 -0.8987138
H -0.382408 -1.7654016 1.8338093
