9

N 1.3708302 -1.0293835 0.59157217
C -0.4063208 0.6436369 0.4743523
C 0.43199688 -0.43712854 -0.021599079
N -1.3306865 1.1508085 -0.2947103
N -2.1310802 1.5909355 -0.9546357
O 0.123450905 -0.8008961 -1.2886683
H 1.505724 -0.66941 1.532388
H 0.74373436 -1.515918 -1.4989992
H -0.30764878 1.0673554 1.4603002
