9

N -1.59021046 1.94674143 -1.29047907
C 0.40771418 -0.45841354 0.04237198
C -0.56359722 0.55662005 0.42060367
N -1.11253050 1.30184253 -0.49942240
N 1.03181182 -1.25311205 0.80860258
O 0.62537216 -0.50408157 -1.29311719
H 1.28190222 -1.20752064 -1.41307019
H 0.78317116 -1.12349198 1.78547931
H -0.86363352 0.74141551 1.43903170
