11

N 1.4810107 0.14123163 -0.7670974
C -0.59887856 -0.51876795 -0.20740762
C 1.6519914 0.43615195 0.46238136
N 0.67273474 -1.0090874 -0.50567645
C -0.5148546 -0.27540982 1.1690785
N -1.4512075 -0.09386529 -1.1752826
N 0.8056499 -0.22349407 1.4579343
H -1.9420552 0.778792 -1.0610931
H -1.2028425 -0.3424671 -2.1211827
H -1.2699407 -0.06286117 1.922468
H 2.3683922 1.1697772 0.82587796
