11

N 0.9926177 -0.8470044 -1.5276896
C 0.2500944 -0.2217122 -0.5573221
C 0.5885771 -0.2758555 0.81138027
N -0.1205934 0.38217 1.7030864
C -1.1517133 1.0878489 1.2092127
N -1.5077981 1.16045 -0.06248075
N -0.79979366 0.48577005 -0.9633075
H 1.5286529 -1.6574543 -1.2665244
H 0.54063565 -0.9071875 -2.428319
H 1.4360763 -0.85736537 1.1682457
H -1.756756 1.6503404 1.9137182
