11

C 0.32101633 -1.27114280 0.23476612
N 0.87008427 0.04532697 0.54572500
C -0.39887127 0.56308903 0.23710250
O -0.98468751 -0.67526325 0.06755873
C -0.93925124 1.76973308 0.13526139
O 0.79291505 -1.93748907 -0.86210684
H -0.32834274 2.65009384 0.28383284
H 0.34662417 -1.98121519 1.06494021
H -1.99230496 1.87428050 -0.08653070
H 1.68071668 0.36092206 0.02912900
H 0.63210127 -1.39833517 -1.64967911
