10

O 2.0058312 1.1506883 0.43260708
C 0.9586016 0.60098606 0.20639594
C 0.43312383 -0.8470546 0.23341757
C -0.9135912 -0.24431553 -0.23632255
N -0.26693758 1.0634509 -0.19615023
H 0.92590654 -1.5146546 -0.47644025
H 0.42647403 -1.2998441 1.2261239
H -1.2334856 -0.54915935 -1.2361827
H -1.7430004 -0.35074592 0.4684061
H -0.59292245 1.9906486 -0.42185473
