10

N 0.82600933 -1.506492 -0.45660225
C -0.20212264 -0.6476851 -0.3626322
O -1.3355284 -0.81801385 -0.7780743
C 0.20292412 0.6478197 0.36141604
O 1.332852 0.8161509 0.7842451
N -0.8244561 1.5095314 0.44913635
H 1.7120916 -1.2335644 -0.056646567
H 0.7021772 -2.3976803 -0.90384716
H -0.70126104 2.3981397 0.9038125
H -1.7126863 1.2317941 0.059192542
