10

N -0.6317045 0.91506827 -1.6388763
C 0.6654863 -0.4771899 -0.08456808
O -1.2691106 0.80085224 0.5573112
C -0.45832404 0.468244 -0.47394112
O 1.4614161 -0.843884 -0.92596793
N 0.68237984 -0.8401512 1.2179621
H -1.9406943 1.401608 0.19631058
H 0.09232431 0.54230195 -2.2518072
H 1.4044793 -1.4667188 1.5361701
H -0.0062525156 -0.5001306 1.8674066
