10

O -0.36996304 -1.66376399 1.46050959
C 0.39962529 -0.85011610 -0.71164257
O 0.42710550 0.48660383 -1.22229319
C -0.18309914 -0.74320930 0.70098227
C -0.44322492 0.69310422 0.87833611
C -0.06553566 1.29200885 -0.26233808
H -0.22579848 -1.46427869 -1.36540734
H -0.86110866 1.15361288 1.76150991
H 1.41863714 -1.24583826 -0.70379282
H -0.09663804 2.34187699 -0.53586371
