10

O -0.68601006 0.72017795 -0.37698168
C 0.31820774 -1.4119647 -0.05074586
O -0.24865034 2.4416635 1.0415055
C -0.7529186 2.0144923 0.043321513
C 0.113566294 -2.55733 -0.6419918
C -0.0041834456 -0.15952569 0.41978353
H 0.33697128 0.24210688 1.3682523
H 1.3663453 -0.8649222 0.112322606
H -1.3501494 2.5839016 -0.67760587
H 0.90682125 -3.0086 -1.2378602
