11

O -0.81436086 2.160469 -0.7002588
C -0.42236203 1.0846976 -0.3105236
C 0.34589067 0.0022280233 -1.0764712
C 0.5422388 -1.0868543 -0.056733143
C -0.014671575 -0.69557375 1.0907393
N -0.5887747 0.5807287 0.96310264
H 1.28425 0.4188054 -1.4583156
H -0.23791327 -0.31308183 -1.9483962
H 1.0488836 -2.0239267 -0.23355447
H -0.07146461 -1.2111332 2.0406113
H -1.071716 1.0836413 1.6898001
