10

O 0.73723734 -0.79673297 0.15655687
C 1.08106279 0.12525776 -0.76834685
N 0.49087993 1.23452929 -0.86924477
C -0.32700656 -0.43311611 1.01843625
C -1.63515357 -0.49823160 0.34521903
N -2.67251043 -0.57123468 -0.15129682
H 0.89192188 1.78617397 -1.62166750
H -0.18564235 0.57624034 1.40926223
H 1.91913457 -0.26197399 -1.35239867
H -0.29992357 -1.16091202 1.83348004
