10

O 1.020352 -0.38014212 0.13109612
C -0.8149481 0.3176193 1.5086801
N -1.7664281 0.02769103 2.0905685
C 0.41904017 0.71017504 0.8073364
C 0.40706363 -0.77209216 -1.0064373
N -0.6377917 -0.21441348 -1.4380058
H -0.9459356 -0.6510259 -2.301547
H 1.1623595 1.0431534 1.5362524
H 0.183431 1.5186101 0.112749964
H 0.9728575 -1.5995752 -1.4406934
