11

O 1.6816574 0.66670775 -0.51248777
C 0.7621569 -0.04812307 0.24983597
C -0.33885944 0.689496 1.0424522
O -1.3539462 -0.14656179 0.41646862
C -0.42367518 -0.683865 -0.439374
N -0.5595801 -1.3694929 -1.4803094
H 1.2643875 0.89939946 -1.3519958
H 1.3172332 -0.75877076 0.87005895
H -0.3464313 0.57534426 2.1273189
H -0.46106228 1.7368056 0.75182956
H -1.5418805 -1.5609396 -1.6737975
