10

O 0.15909936 0.55827007 2.15456532
C 0.91490288 -0.69516966 0.14314261
N -0.86646971 0.72848827 0.08208566
C 0.07421417 0.25616274 0.99077573
C -0.62679661 0.14019221 -1.15854622
N 0.35712486 -0.66939679 -1.20730070
H 1.96427728 -0.37980114 0.13619650
H -1.59653800 1.38505701 0.30899678
H 0.88297863 -1.70909964 0.55345318
H -1.26279293 0.38529695 -2.00336893
