10

O 2.3637857 -0.39563766 0.27520633
C 1.173262 -0.19562986 0.13658077
N 0.33077326 0.5740508 0.92313814
C -0.97471905 0.5529561 0.43398592
C -0.97655827 -0.22473513 -0.6629495
N 0.3270392 -0.68209136 -0.8479495
H 0.6602812 1.0608871 1.739372
H -1.7770691 1.0906508 0.91261077
H -1.7811995 -0.49688286 -1.3259828
H 0.6544045 -1.2835679 -1.5840122
