10

O 0.7978294 0.34080535 -2.1928864
C 0.35491112 0.2358417 -1.0621885
N 0.053032987 -1.0147257 -0.42279917
C -0.42553696 -0.839878 0.8215808
C -0.012176515 1.1634382 -0.035716753
N -0.55434716 0.44813952 1.1146907
H 0.44497004 0.98319477 1.2919966
H -0.17602526 2.2251358 -0.12226545
H -0.6585312 -1.6450063 1.5038424
H 0.17587352 -1.8969451 -0.89625406
