12

O -0.6664702 -1.4505544 0.88022834
C -0.06033376 -0.22423373 1.1996957
C 0.44435453 0.45356303 -0.07364435
O 1.3239219 -0.4281967 -0.72026134
C -0.70934355 0.77549154 -0.99826133
O -0.7244952 0.3803081 -2.1396499
H -0.029350325 -1.9080981 0.31198677
H 0.7856827 -0.34669423 1.8909705
H -0.81456375 0.39882573 1.6928644
H 0.94064 1.4032583 0.18809402
H 1.0304803 -0.46142069 -1.6458409
H -1.5205225 1.4077508 -0.58618194
