13

N -1.8827084 1.5240853 -2.0716581
C -1.1363307 1.1069901 -1.2834395
C -0.21599512 0.6519133 -0.30794066
N -0.9612124 0.53873515 1.0934833
C 0.55409354 -0.6130027 -0.5579781
N 1.3935786 -0.87640524 0.61428
H 2.162262 -0.21017444 0.61524713
H -0.12205089 -1.4799887 -0.66338825
H 1.1062243 -0.50636685 -1.5027381
H -1.9637558 0.37839317 1.0466096
H -0.41512844 -0.14717385 1.6178325
H -0.31916016 1.4376899 0.83983696
H 1.8001837 -1.8046951 0.55985296
