10

O 0.6056585 -1.8154849 -1.3274163
C 0.16034324 0.6040627 -0.77765924
C 0.31641227 -0.9205358 -0.56365335
N -0.20493092 0.78880376 0.6472032
C -0.010249342 -0.80514467 0.83311117
H -1.1005567 1.1816785 0.9062281
H -0.68849427 -1.355663 1.471162
H 1.0268387 1.1881912 -1.1025101
H -0.70183027 0.8249651 -1.4129255
H 0.59680885 0.3091274 1.3264601
