10

N 0.80485857 -0.15975255 1.6810569
C -0.37739873 0.13932265 1.3642126
O -0.7937061 0.20858514 0.08814721
C 0.2138926 -0.08573211 -0.8720638
C -0.3861038 0.0410851 -2.2030778
N -0.8139266 0.12963425 -3.2742534
H 0.9175124 -0.15915169 2.6923988
H -1.2146425 0.37940183 2.0238094
H 0.596054 -1.1014202 -0.7271283
H 1.0534604 0.6080276 -0.7731018
