10

N 1.0003761 -0.76158726 1.176255
C 1.067947 0.38231304 0.8180448
O -0.5364347 0.31323624 -1.2074429
C 0.7404387 1.4080894 -0.0044075567
C -0.9644568 -0.66002977 -0.5301644
N -0.13995662 -1.5946056 -0.08046396
H -0.6054132 -2.265134 0.5192149
H -2.0282822 -0.66538703 -0.22814755
H 1.4177943 1.6745647 -0.80642635
H 0.047987334 2.1685402 0.34353796
