10

N 1.1423905 -0.46430576 -0.76107645
C -1.6128875 -0.19433717 1.4896712
O 0.15250573 1.5902011 -0.8747615
C -0.60100156 -0.55102146 0.74711627
C 1.0069116 0.813862 -1.2329267
N 0.33680743 -1.0925256 0.15303057
H 1.8567731 -1.0738941 -1.1278919
H 1.7833446 1.0390973 -1.9814053
H -2.6243105 -0.30030325 1.117308
H -1.4405335 0.23322701 2.4709358
