11

C 2.0160744 -0.43958598 0.24102174
C -0.24482599 -0.049867477 0.15234941
C -1.2128309 0.40525782 -0.38420582
C -2.3870974 0.9694077 -1.0524079
O 0.7640167 -0.58853006 0.81715345
N 2.8277202 -1.057954 1.092675
H -2.9192526 0.19730721 -1.6162318
H 2.5037885 -1.5254394 1.9380776
H -2.0834353 1.7574612 -1.7506025
H -3.077621 1.4033803 -0.32152218
H 3.8134625 -1.0714371 0.883693
