11

C -0.73211646 -0.17053781 -2.315414
C -0.16542517 -0.12324424 -0.9694629
C 0.3175743 -0.09126771 0.13351993
C 0.9785588 -0.09928672 1.4388691
O 2.0869343 -0.5631492 1.6110351
N 0.24762766 0.47524914 2.4372468
H 0.007499716 0.15468027 -3.0516827
H -1.6101047 0.475988 -2.399116
H -1.0301949 -1.192567 -2.5634246
H 0.61535066 0.39951634 3.3736827
H -0.71570426 0.7346189 2.3047462
