11

C -0.77389115 0.8792346 1.5438601
N 0.58576256 0.5190893 1.1775457
C 0.83491826 -0.053053766 0.095825285
O -0.14477298 -0.38694894 -0.8389484
C 0.2536879 -1.026847 -1.964696
O 1.3785527 -1.3389715 -2.2363448
H -0.7924564 1.9527503 1.7495668
H -1.0152543 0.3649811 2.4788828
H -1.5384084 0.6419696 0.79495347
H 1.8390132 -0.33528984 -0.20590699
H -0.6271514 -1.216914 -2.594738
