11

C 0.47886862 -0.31809468 2.27950579
N 0.49476627 -0.14135303 -1.14017970
C 1.05793619 -0.44080001 0.01281484
O 0.11813512 -0.10555410 0.97813635
C -0.84167870 0.42009001 -1.39143928
O 1.51496447 -0.74753718 2.68011974
H -0.93915342 1.40110531 -0.91973419
H -0.37005363 -0.01650431 2.91107610
H -1.61300591 -0.24465964 -0.99461771
H 1.07384272 -0.33046207 -1.94500180
H -0.97462175 0.52376956 -2.47068018
