9

O 1.4374316 1.3933595 -0.5292225
C -0.061647035 -0.3197543 0.21791193
C 0.63300264 0.9357379 0.5288419
C -1.2577626 -2.6670046 -0.40012315
C -0.6258438 -1.3475174 -0.073182166
N -2.1867878 -1.9517941 -0.64613044
H -0.12193271 1.6786125 0.832582
H 0.8845153 1.4978867 -1.3123009
H 1.2990243 0.78047407 1.3816233
