9

O -0.23972736 -1.2158136 1.7554657
C -0.18867308 0.1271747 1.3343753
C 0.11601635 0.268017 -0.09977285
C 0.33833617 0.33367866 -1.2813692
C 0.5976069 0.41362652 -2.6395736
N 0.8123353 0.48063952 -3.7796924
H -0.91606003 -1.6733025 1.2419354
H 0.6027467 0.5992068 1.9211141
H -1.1225808 0.66677296 1.5475175
