10

O -0.680214 -1.1527247 -0.27699664
C -0.44994795 0.08949527 -0.7855494
O 1.2626299 0.2161386 -0.86632496
C 0.19566049 -0.932456 0.8784583
C 0.60752445 0.4329843 0.27378538
C -0.48126158 1.3524243 0.27850989
H -0.25330642 2.1734347 -0.4197189
H -0.3866873 -0.8674869 1.7962663
H -0.7955247 0.37585536 -1.7725471
H 0.98112696 -1.6876651 0.894117
