10

O 0.036707655 -2.5498884 0.5190509
C -0.24064046 -1.9915528 -0.5084174
O -0.23534533 -0.6692476 -0.69667155
C 0.134403 0.09665454 0.46349806
C 0.10448707 1.5118963 0.10892839
C 0.09183585 2.685892 -0.1421766
H -0.5362095 -2.4892278 -1.4433099
H -0.565897 -0.11937557 1.2772536
H 1.1335108 -0.20506567 0.79362416
H 0.0771478 3.729915 -0.37177962
