11

O 0.54184556 -0.8409431 2.2201092
C -1.1026521 0.52828306 -0.29976147
C 0.17290573 0.88121986 0.45004985
N 0.26101488 0.383209 -0.93273914
C 0.08467358 -1.2327986 -0.17512935
C 0.3462024 -0.4270278 1.1137775
H 0.6299806 1.0184321 -1.6391059
H 0.5244337 1.8704 0.7201712
H -0.76662564 -1.912855 -0.18197216
H -1.6611581 1.4162259 -0.6352996
H 0.96937925 -1.6841452 -0.64009994
