11

O -0.63567111 0.24374464 -2.36820796
C -0.99003818 0.14677160 0.11061045
C 1.02646506 -0.29520394 -0.54511853
N 0.29062677 -0.24890533 0.75214211
C -0.30320285 0.10421313 -1.23025676
C -0.25091842 1.18158513 0.95652837
H 0.34435109 -1.00121306 1.42703816
H 1.33762229 -1.30834140 -0.82153964
H -1.91909937 -0.36647706 0.35405133
H 1.85275131 0.41633144 -0.57354910
H -0.75288690 1.12749490 1.93830165
