10

N -0.33189908 0.9034493 -1.5785669
C 0.40462998 0.37869045 0.772797
N -0.52683747 -1.697158 0.7612012
O -0.71713245 -1.0729605 -0.4747908
C 0.13186271 -0.8256129 1.474322
C -0.16717109 0.14227484 -0.4457185
H -0.48427203 0.36607468 -2.4224346
H 0.40443793 -1.0811536 2.4910014
H 0.3608918 1.6274908 -1.693273
H 0.92548966 1.2589053 1.1154622
