10

N -0.54755031 0.65903261 -1.63832715
C -0.19706376 0.05874233 -0.45229253
N -0.08063591 -1.70765771 0.90262581
O -0.42096754 -1.25426180 -0.37491772
C 0.33448364 -0.64301365 1.53209134
C 0.29418553 0.53009471 0.73266735
H -0.55738012 0.03394570 -2.43411067
H 0.66130820 -0.73798039 2.56039204
H 0.57436096 1.53819212 0.99483860
H -0.06074069 1.52290593 -1.82296758
