9

O -0.9300182 -1.1327939 -1.9717504
C -0.40805832 -0.62075543 -1.0181487
N -0.89921546 0.31767318 -0.14097011
C 0.064409316 0.6276917 0.82153153
C 1.1303709 -0.121886 0.52850825
O 0.8698649 -0.88910663 -0.58482933
H -1.8227786 0.70478225 -0.22779405
H -0.10677408 1.3417248 1.6107525
H 2.1021996 -0.22733007 0.9827003
