11

C 0.5185946 -0.95836556 -1.8489802
C 0.44203407 -0.007630709 1.6687282
C 0.15199499 -0.08900046 0.21453801
C -0.7061463 0.52747726 -0.60933036
N -0.45396218 -0.02969686 -1.866198
O 0.8819356 -0.97757506 -0.54009205
H 0.28551292 -0.9784595 2.1503184
H 1.4814943 0.28713325 1.8433441
H -1.4528898 1.2849963 -0.43687803
H -0.2129913 0.7262827 2.1414309
H -0.93557686 0.21483864 -2.7168808
