11

C 1.06595130 -0.88379010 -1.63975472
C 0.11059163 -0.06174545 0.24699615
C -0.61952303 0.40342168 -0.77562915
C 0.04494964 0.07926110 1.72389191
N -0.00566190 -0.12003536 -1.91708582
O 1.11919454 -0.83206192 -0.28326542
H -0.06910119 -0.89908420 2.20219037
H -0.31137651 0.03684632 -2.86436522
H 0.96027299 0.53577326 2.11329388
H -1.49146606 1.03567508 -0.80985981
H -0.80383173 0.70573962 2.00358785
