11

C -0.08885872 -0.95257455 0.7156797
C 0.8995563 -1.8442087 0.17660916
C -0.09962313 0.15007317 -0.07490722
C -0.9535343 1.3697902 -0.10955436
N 1.444303 -1.1845311 -0.88802654
O 0.8504809 0.07510045 -1.0177526
H -1.6384902 1.3703214 0.7394225
H -0.32948896 2.2664487 -0.071627036
H 2.1723397 -1.5040579 0.0029023103
H -1.5288528 1.3960541 -1.0388038
H -0.72783154 -1.1424158 1.5660578
