12

O 1.6277077 -1.1031168 0.7567736
N -0.46857172 0.898888 -1.0376303
C 0.4030509 1.0717509 0.14587541
C -0.95502806 -0.41252562 -0.5671847
N 0.29856235 -1.1547645 1.6133312
C 0.08911999 -0.38200238 0.5483128
H -0.86766577 -1.2234745 -1.3002554
H -1.1917953 1.6010363 -1.133245
H -1.968113 -0.43365526 -0.13689452
H 1.4405843 1.3270903 -0.08355444
H 0.02480564 1.7565534 0.9180646
H 1.5673429 -1.9457794 0.27640644
