11

N -1.8453228 1.363686 -0.16476138
C 0.20532644 -0.4229516 -0.56711096
C 1.4031786 -0.2750566 -0.054079983
N 1.8014797 -0.6400846 1.2479545
C -1.986876 0.2908394 -0.87837225
N -0.9213716 -0.60127574 -1.053352
N -1.6502247 2.2907307 0.4744772
H 2.6831145 -1.1338886 1.2472428
H 2.1568186 0.23088983 -0.6532189
H 1.1020588 -1.1907754 1.7280608
H -2.9481819 0.08788662 -1.3268399
