11

N -1.37318533 -0.45614901 0.47570862
C -0.30248670 -0.66175894 -0.11505979
C 0.83436524 -0.91401156 -0.71826771
N 2.11746065 -0.84232134 -0.13886314
C -1.92798706 0.81869270 0.64529817
N -0.73457249 2.75775488 -0.22585075
N -1.32140979 1.87275493 0.19663970
H 2.68026899 -1.64918811 -0.36980817
H 0.80923774 -1.14157365 -1.78152055
H 2.08425996 -0.72523456 0.86519882
H -2.86595153 0.94103477 1.16652479
