11

N 0.99197185 -0.84634674 -1.525434
C 0.24777994 -0.22429636 -0.5563772
C 0.5867873 -0.2763562 0.81337965
N -0.118573554 0.38251767 1.7018322
C -1.1513001 1.0887866 1.206506
N -1.508047 1.1592 -0.062143233
N -0.79949266 0.48283494 -0.96144074
H 1.5275213 -1.6581875 -1.2652788
H 0.5433966 -0.9024887 -2.427205
H 1.4350266 -0.8591209 1.1669235
H -1.7550706 1.6534573 1.9092376
