9

O -0.45966575 -1.5193044 1.3194351
C 1.1388527 2.6994848 -0.5251717
C -0.1452167 0.34877694 -0.1584333
C -0.83260787 -0.9236444 0.1037314
C 0.45576474 1.3822643 -0.33685398
N 1.918784 2.000829 -1.1167974
H 0.49477473 -1.6578639 1.3095769
H -0.6614552 -1.5877628 -0.75866425
H -1.9092307 -0.74277973 0.16317734
