11

C 0.70410546 1.03787769 -0.71525271
N -0.00960078 -0.01477359 -0.01540449
C 0.51440719 -1.12268525 0.57875800
N -0.42343588 -1.82174699 1.15984167
C -1.34204191 -0.09208352 0.25702309
N -1.60685816 -1.16485897 0.95382412
H 0.07216709 1.43981776 -1.50958590
H 0.97841319 1.84144190 -0.02742169
H 1.60837511 0.62064161 -1.16388639
H 1.56651546 -1.36707897 0.55536544
H -2.06204657 0.64344817 -0.07326111
