11

C 0.5840415 -1.4022081 0.21502389
N 0.5224464 0.6111516 -0.5913127
C 1.3776906 0.52349025 0.43534023
N -0.000710595 -0.6669513 -0.74145806
C -1.3648311 0.6005343 -0.3649766
N 1.4753617 -0.71412754 0.9327333
H 1.949279 1.3725682 0.78715295
H 0.36926022 -2.454056 0.34815118
H -1.2918577 1.4708443 0.28187895
H -1.9725207 -0.18389615 0.079015
H -1.6481596 0.8426502 -1.3815482
