11

O -0.46656045 -2.506215 -1.1519877
C -0.076122925 0.3330946 1.1469523
C -0.22302613 -0.4333786 -0.019266738
C -0.5164229 -1.8752062 -0.12786289
N 0.3000333 1.5787107 0.8580962
C 0.3692198 1.5838073 -0.48971894
N 0.00095467316 0.35198772 -1.0932614
H -0.7929244 -2.349081 0.8377642
H 0.39769804 2.4909585 -1.0878559
H 1.2163235 0.81990886 -1.0468565
H -0.20917247 0.005412854 2.1739972
