11

O 0.4628003 -1.0949349 -2.333976
C 0.80871516 -0.14719969 -1.6597883
C 0.26755902 0.10861912 -0.3365068
C 0.47427464 1.0729392 0.6247725
N -0.3096592 0.83650154 1.7138065
C -0.98702353 -0.25658473 1.4239798
N -0.6779923 -0.7348348 0.20267081
H 1.5612795 0.579839 -2.0174463
H 1.1455369 1.9188993 0.58472
H -1.709798 -0.7342912 2.0717168
H -1.0356926 -1.5489529 -0.2739493
