10

O 0.9916809 0.5075238 -1.7942684
C 0.3810676 0.1844108 -0.65619797
C 1.1497654 -0.27886 0.43630147
N 0.56521094 -0.6052273 1.5669714
N -0.7613618 -0.49405926 1.6792823
C -1.4290149 -0.05474552 0.6281773
N -0.9221156 0.29950258 -0.5655753
H 0.303572 0.7950196 -2.4165437
H 2.2279034 -0.3797984 0.37723398
H -2.506708 0.026233591 0.74461895
