13

N -0.6067901 -0.8628989 -1.4383712
C 0.43971777 -0.042241342 -0.8390919
C -0.0815166 0.54896474 0.48149225
N -0.5259987 -0.5343956 1.348271
C 0.98771304 1.3207349 1.1388993
N 1.8235902 1.9455215 1.6370986
H -0.5158876 -0.8793823 -2.4486141
H -0.51731235 -1.8237202 -1.1299049
H 0.6877063 0.78304696 -1.5140809
H 1.3639121 -0.59934646 -0.6299591
H -0.8850396 1.2608279 0.23528813
H -1.3470551 -0.94324005 0.9114156
H -0.8230395 -0.17387062 2.2475572
