13

N 1.6663203 -0.055410843 -0.548157
C -0.44964576 -0.13319457 0.59372073
C 0.6325308 0.7724106 0.068666756
N -2.5502512 0.9185477 1.6595843
C -1.6043537 0.46357548 1.1604269
N -0.9014901 -1.1262429 -0.55720294
H 0.99094474 1.4044534 0.8942672
H -0.6228437 -1.512772 0.46833667
H 2.1583514 -0.57474756 0.17544141
H 0.24976327 1.441273 -0.72104526
H -1.8096315 -0.9378802 -0.97029287
H 2.3543139 0.5200637 -1.0233977
H -0.114008605 -1.1800758 -1.2003481
