13

N 0.72087174 -0.15891447 -1.19157243
C -0.07226294 0.74245754 -0.28348890
C -0.38681711 -0.07559635 0.93232494
N -1.02711330 -1.32209039 0.45447108
C 0.60045226 1.97437044 -0.11897082
N 1.14220880 3.00500923 -0.03750724
H 0.66091904 0.14032858 -2.16243009
H -1.95568916 -1.09130051 0.11331690
H 1.71245184 -0.27384790 -0.96109298
H 0.23933546 -1.06709807 -1.08046361
H 0.50369472 -0.40643502 1.51163045
H -1.00682378 0.52054690 1.61285694
H -1.13122770 -1.98742946 1.21092575
