13

N -1.6644838 2.5906136 -0.92430663
C -1.141428 1.5686634 -0.7136334
C -0.5061398 0.32007778 -0.5274502
N 0.29424593 -1.5364149 0.7498516
C -0.4802287 -0.27827176 0.84647346
N 0.9313701 0.4043881 -0.9663202
H 1.3255235 -0.4829198 -0.6108661
H 1.4738772 1.1877459 -0.5900249
H -1.5107574 -0.4061781 1.1994174
H 1.0128623 0.42965412 -1.9804336
H 0.049503863 0.33469248 1.6091783
H -0.26365247 -2.2140653 0.23853704
H 0.47930738 -1.9179857 1.6695774
