10

C 0.5945887 1.3861253 -0.58325917
O -0.404886 0.38613433 -0.38693804
C -0.02792271 -0.6253314 0.4317809
O 1.0523434 -0.71481735 0.96449083
N -1.0601354 -1.5051095 0.5795603
H 0.85168236 1.8679057 0.36449516
H 0.14917357 2.1102295 -1.2669795
H 1.4969887 0.9528903 -1.0217719
H -1.8264238 -1.4660037 -0.07248663
H -0.82540864 -2.3920233 0.991108
