10

C 0.61171794 -0.5509235 -0.5126186
O -0.09448539 1.722288 -0.65167665
C -0.184406 0.46281782 -0.1551644
O 0.37811232 -1.80907 0.03466241
N -1.2525921 0.33617175 0.7178047
H 0.667509 1.7701744 -1.2420862
H 1.334016 -0.4673077 -1.3201894
H -1.2206615 -0.555057 1.1934115
H -1.3656043 1.1256403 1.3353838
H 1.1263942 -2.0347342 0.600473
