9

O -1.8310788 -1.4274254 0.7364145
C 1.0591308 0.24936143 -0.4359639
C -0.20415778 -0.3517674 -0.48242173
C -1.2180101 -0.29254326 0.5752042
C 2.1432762 0.78843176 -0.38672626
H -0.7826645 0.18600398 1.4885135
H -1.8233621 0.5922012 0.16054621
H -0.43750492 -1.0196096 -1.3111379
H 3.0943706 1.2753474 -0.34442863
