9

O 0.07702787 -0.8361387 -1.3481611
C -0.5299924 -0.32713914 -0.16540293
C 0.5444603 -1.3278482 -0.106423266
C -0.2925417 1.0656472 0.16608326
C -0.12336252 2.2201898 0.4612339
H 1.5451673 -1.0056467 0.17559122
H -1.5537733 -0.66918844 -0.011986384
H 0.036784377 3.2447126 0.7152555
H 0.29623 -2.3645885 0.113809854
