12

O -2.1261933 0.45648992 -1.3485473
N -0.8763332 0.19066249 -1.5327497
C -0.38798293 -0.58718956 0.77138686
C 1.1920832 0.5165822 -0.12423757
N 1.0812645 -0.56116176 0.8906015
C -0.31555504 0.5285236 -0.3348135
H 1.4992057 -1.4219322 0.5661834
H -0.8363508 -1.520448 0.4098344
H 1.6050608 1.4387299 0.29819787
H -1.7055146 0.9827933 -0.26382977
H -0.87736994 -0.2804566 1.7010092
H 1.7476847 0.2574064 -1.0330354
