12

O 1.2926894 -1.07335 2.29602
N 0.85186964 -1.1605563 1.1801615
C 0.7278961 0.4704821 -0.7374348
C -1.1270182 -0.13769965 0.020023916
N -0.67574304 0.6163209 -1.1611195
C 0.24922282 0.08790791 0.676659
H -1.3090185 -1.2074697 -0.15404807
H 1.324483 1.3848752 -0.82095855
H 0.29926232 0.88073015 1.4311327
H 1.2644452 -0.36267227 -1.2106488
H -1.9878144 0.3002116 0.5356183
H -0.91027415 0.20121996 -2.0554059
