10

N 1.637894 -0.29629952 -0.9192778
C -1.4900697 0.29016522 0.7513688
O -1.9904454 -0.27556267 1.815422
N -0.28606766 -0.1797492 0.35845777
C 0.39153567 0.27067196 -0.79554725
O -0.09950183 1.032019 -1.5901988
H 2.1927478 0.10352302 -1.6611459
H 0.082421005 -0.9501878 0.91368407
H 2.1420841 -0.59203535 -0.09797986
H -2.5805984 0.5974554 1.2252167
