10

N -0.40907013 0.04176881 -0.09788307
C 0.82466394 0.171058 0.58154696
O 1.1390201 1.1331863 1.2306594
N 1.6030297 -0.96172965 0.44789624
C -1.277999 1.0682994 -0.23472972
O -2.3234174 0.5396591 -0.88750035
H -0.6641291 -0.8822084 -0.44164515
H 2.5441122 -0.84184635 0.7955298
H 1.525144 -1.5196552 -0.38754323
H -2.9613543 1.251468 -1.0063305
