11

O 0.18839198 -1.9082693 1.1285496
C 0.028134864 -0.7648338 0.41471857
C -0.8768758 -0.36703902 -0.53672624
C -0.5026926 0.96555316 -0.9063313
C 0.5963304 1.3142147 -0.17569934
N 0.91634876 0.24141364 0.6365768
H -0.5073416 -2.520424 0.86322165
H -1.7012079 -0.948408 -0.9242471
H -1.0061418 1.5814235 -1.6370772
H 1.1845673 2.217979 -0.15451545
H 1.6804863 0.1883904 1.2915303
