12

C -0.04232967 0.11300486 0.88158623
C -0.29572332 -0.48094185 -1.11019873
N 0.29300739 -1.07538960 0.10408550
C -0.18658413 0.89867862 -0.44202021
O 0.90261319 0.48368121 1.83369162
H -0.09923019 -1.95346926 0.42738610
H -0.99211411 0.05177241 1.42819580
H 1.76902237 0.38850664 1.41463244
H -1.33999037 -0.77300642 -1.28766166
H 0.28346996 -0.65156358 -2.02178730
H -1.03396593 1.58148227 -0.53034674
H 0.74182470 1.41724475 -0.69756310
