10

N 0.9631032 0.31839067 1.1846493
C -0.49317098 0.4339316 -0.6070209
O -1.271096 0.9413346 -1.5817627
C -0.49924266 -0.8900882 -0.053660527
C 0.44798726 1.1210415 0.29185545
N 0.36976677 -0.88311225 0.9597854
H 0.75993127 2.1545172 0.22331327
H -1.0360976 -1.7710272 -0.37451938
H 0.09672725 0.24043989 -1.5663526
H 0.66209155 -1.6654279 1.5237126
