10

N 1.22360357 -0.41418913 -0.77155238
C -0.64967505 -0.03789859 0.26605460
O -1.91552346 -0.18378478 0.74543113
C 0.27406863 1.01672721 0.44522814
C -0.00281390 -0.95295213 -0.53002159
N 1.41142948 0.77167308 -0.19380883
H -2.14696973 0.58782990 1.27392151
H -0.31434779 -1.90846643 -0.92445082
H 0.15259061 1.93337489 1.00732987
H 1.96763815 -0.81231411 -1.31813153
