10

N 1.0665467 -0.6280591 -0.8556116
C -0.0038780072 -1.0804816 -0.14694573
O -1.6705658 0.03989644 1.2109058
C -0.56664306 0.04110201 0.41415617
C 0.24044004 1.1175454 -0.018888395
N 1.2320486 0.69251984 -0.79224163
H -1.8721288 0.9435607 1.4774052
H -0.27687597 -2.1237087 -0.094175614
H 0.13529594 2.1719754 0.2003839
H 1.7157604 -1.1743504 -1.3949882
