11

O -1.2764025 -0.1778095 1.9305675
N -1.1706457 -0.7670446 0.67120874
C -0.2410228 -0.23052119 0.006631818
C 0.29679543 -0.46534514 -1.3771129
O 1.2571179 0.5894554 -1.172476
C 0.7913892 0.856837 0.16324012
H -2.0046878 -0.6697145 2.330502
H -0.389546 -0.24666981 -2.2025506
H 0.7772504 -1.4358736 -1.5448885
H 1.5627289 0.67300683 0.91999084
H 0.39702266 1.8736794 0.27488706
