11

C 0.21456953 -0.61856455 1.89595910
C 0.03324249 -0.28925552 0.61636642
N 0.79966305 0.54035106 -0.20852781
C 0.12766397 0.65940611 -1.43617264
C -0.92029424 -0.15671970 -1.39014402
O -0.99955440 -0.76683584 -0.15537780
H -0.48813590 -1.27247357 2.39400703
H 1.07443889 -0.24611201 2.43847588
H 0.50412210 1.28144244 -2.23351641
H 1.32819407 1.30121807 0.18785031
H -1.67390943 -0.43245673 -2.10892029
