11

C 0.5087724 -0.9628737 1.5017955
C 0.16490293 -0.12593582 0.31893718
N 0.6338162 1.0340055 -0.007701206
C -0.032491714 1.3586494 -1.182294
C -0.8765854 0.35923693 -1.5009527
O -0.76074016 -0.6066538 -0.5434762
H -0.38672626 -1.1941111 2.0873504
H 1.2142113 -0.41568208 2.1286724
H 0.9631426 -1.9110711 1.197906
H 0.15082933 2.289439 -1.7016448
H -1.5791311 0.17499653 -2.2985928
