9

N 2.2665603 1.2419343 0.5907113
C 1.4546839 0.6545704 0.015950657
O -0.8805173 0.39088252 -0.5011443
C -1.4018002 0.25840044 0.7244442
O -0.69979084 -0.3503418 1.6034749
C 0.42805317 -0.060359698 -0.72511446
N 0.7285605 -0.92485726 -1.5841455
H -1.78327 0.09699969 1.892839
H -0.11247954 -1.3072288 -2.0170155
