9

N 0.69736519 0.58640437 -1.72741715
C -1.49894230 0.16606370 0.84199449
O -0.66810777 0.94431254 0.12824631
C 0.48522673 0.47727624 -0.49664109
O -1.06631457 -1.07732209 0.71042876
C 1.50800753 -0.03108057 0.40201387
N 2.32569985 -0.40838368 1.12429894
H -1.66655768 -1.64220805 1.21579756
H -0.11637666 0.98493753 -2.19872170
