9

N 1.7510898 1.9398419 0.10199463
C 0.3370778 -0.07042651 -0.76896596
O -0.6058644 -0.1744876 1.550755
C -1.5835756 0.049264714 0.68791074
O -1.0318993 0.034262557 -0.53716964
C 1.1310756 1.0408025 -0.27215058
N 0.8543884 -0.98330086 -1.4550939
H -0.9999184 -0.17301129 2.4336507
H 0.14762631 -1.6629455 -1.7409312
