11

C -0.7717992 0.87940747 1.5447322
N 0.5837441 0.5211958 1.1737432
C 0.83481234 -0.05348407 0.09393241
O -0.14556551 -0.3880052 -0.83948153
C 0.25154004 -1.0268524 -1.9646938
O 1.378041 -1.3362418 -2.2367334
H -0.79241174 1.9532394 1.7484643
H -1.0113367 0.365646 2.480712
H -1.5367508 0.6411757 0.79684335
H 1.8386154 -0.33737385 -0.2041154
H -0.628889 -1.218707 -2.593404
