11

O -0.56228302 0.26784851 -1.56755447
C 0.85501935 0.51097326 -1.35202013
C -0.04882537 0.06965903 -0.30998185
C -0.24076562 -1.11354457 0.64987001
O 0.40561917 -0.32939072 1.68298813
C -0.58286949 0.52142040 1.05477866
O -1.54025298 -0.57080764 1.00597901
H 1.51742066 -0.20355797 -1.83729368
H -0.09097562 -2.19187645 0.58794206
H 1.14768970 1.55975229 -1.41185484
H -0.85977716 1.47952397 1.49714691
