10

N 0.324203 -0.60796446 1.0516739
C 0.105075374 -0.21151997 -0.20688042
N 0.64949614 -0.87111723 -1.2882273
N -0.8615852 1.3012687 1.1042563
N -0.32712406 0.38835582 1.8765618
C -0.6891488 0.94154954 -0.16450135
H 0.8806386 0.16778687 1.8379297
H -1.117939 1.5093123 -0.9808575
H 0.11761116 -0.7947466 -2.1423361
H 0.91877276 -1.822925 -1.0876187
