10

N 0.9751048 1.4209524 0.55602705
C 0.26123947 0.31821588 0.10113162
N 0.24504444 -0.026194679 -1.1815802
N -0.47375786 -1.1423211 -1.1848155
N -0.9358981 -1.5490184 -0.027840585
C -0.48157063 -0.6358278 0.8260208
H 0.49746057 1.9503683 1.2706827
H 1.2551858 2.021509 -0.2081231
H -0.6488351 -1.6538439 -2.0343192
H -0.69397336 -0.7038394 1.8828166
