10

N 0.47014758 0.86230856 1.5163159
C 0.13424912 0.22836111 0.32998323
N -0.026881719 0.90081936 -0.8053954
N -0.27968153 -1.2892284 -1.2388234
N -0.26091692 -0.058880035 -1.6923308
C -0.027517173 -1.1470828 0.058535498
H 0.034884505 -2.002231 0.7149974
H 0.36175472 1.8648932 1.4502976
H 0.0056046834 0.49289432 2.3325737
H -0.41164327 0.14814517 -2.6661537
