10

N 0.96645929 1.42215922 0.55430000
C 0.25579945 0.32209150 0.09941984
N 0.24206366 -0.02445971 -1.18392012
N -0.93345367 -1.55014558 -0.02697656
N -0.47176245 -1.14379007 -1.18520564
C -0.48509141 -0.63445807 0.82591265
H 1.26878180 2.01486206 -0.20634961
H 0.49782131 1.95312278 1.27332707
H -0.64557226 -1.65762477 -2.03354104
H -0.69504570 -0.70175707 1.88303359
