12

C 1.48466339 0.16031570 0.33431104
C 0.10485671 -0.22163871 0.01943907
C -0.78092436 0.66543134 -0.82985713
O 1.19725137 -0.79470945 -0.67239818
N -0.54086606 -1.11639753 0.93780111
H 1.94422432 -0.24295781 1.23413203
H 1.87754805 1.11427402 -0.02154640
H -0.98621909 -0.58459766 1.67989847
H -1.27211992 -1.63625412 0.46305149
H -0.18027401 1.29864135 -1.48868861
H -1.43964557 0.05235205 -1.45631559
H -1.40849486 1.30554089 -0.19982710
