12

C 0.061961696 -0.11898072 0.20615739
C -0.4346077 -0.27038088 -1.2162709
C 1.3570538 0.50321627 0.4968589
O 1.195879 -0.9045114 0.5184842
N -0.9232038 -0.07226669 1.2493289
H 0.4021064 -0.2959248 -1.91987
H 1.5061679 0.96483195 1.470604
H 1.9661773 0.8938364 -0.3200951
H -1.4580358 0.7884319 1.1785364
H -1.0986873 0.55818605 -1.4864522
H -0.9961188 -1.2061365 -1.3225571
H -1.5786926 -0.8403016 1.1452756
