9

O -0.40407306 -1.1974338 -0.9492908
C -0.47758904 1.1881199 -0.78849286
C 0.64401627 -0.101324394 0.9223306
O 1.5174658 -0.92978483 0.8521752
C -0.5086712 -0.1184353 -0.08304838
N -0.4210492 2.2128844 -1.3181695
H 0.47629032 -1.5809026 -0.79678464
H -1.4534869 -0.17062606 0.47710282
H 0.6270972 0.697503 1.6841778
