9

O -1.5144681 0.28181356 0.45088053
C 0.790411 0.8740196 0.7450106
C 0.16006078 -0.8956384 -0.91077125
O 1.9476292 0.8536467 0.3867367
C -0.23026149 -0.029626235 0.20550807
N 0.8943897 -1.7713516 -1.3171747
H 0.41309476 1.5355148 1.5468912
H -0.43126434 -0.3172259 -1.6767888
H -2.0295916 -0.5311526 0.56970775
