11

O -0.32104722 -1.7785337 1.1422962
C -0.2026099 -0.6920077 0.35493296
N 1.2849386 0.29921135 -1.2044389
C 1.0334698 -0.6986858 -0.4564784
O -1.1604522 2.3808885 0.014319359
C -1.3173517 1.1916648 -0.5546366
N -1.0928539 0.2091162 0.32969177
H 2.137856 0.14146249 -1.7420231
H -0.8108601 2.3008616 0.9205541
H -1.1975222 -1.7525569 1.5526856
H 1.6464328 -1.601421 -0.35690302
