11

O -1.5722212 0.061506316 1.8013923
C -0.700737 0.017022861 0.78256726
N 0.3984012 0.71141446 0.6638394
C 0.921708 0.29879645 -0.5407301
O 2.080283 0.8158564 -0.9969731
C 0.14069058 -0.63934815 -1.1438973
N -0.92607164 -0.80937046 -0.25147983
H -1.2206645 0.7041675 2.4316213
H 2.3697703 1.4520361 -0.3288565
H 0.22134756 -1.183425 -2.0702882
H -1.7125059 -1.4286568 -0.34719542
