12

N 1.04850714 -0.07071634 -1.97728895
C 0.31094637 -0.06219670 -0.79135692
C -1.00621467 -0.35245332 -0.58886036
N -1.17723544 -0.24886965 0.80089061
C 0.02197165 0.08873927 1.30284394
O 0.15710791 0.26100916 2.62700859
N 0.95453522 0.21854220 0.40021265
H 0.52857542 0.26352197 -2.77629447
H -1.81018947 -0.63978471 -1.24815267
H -2.01945583 -0.38986191 1.32976815
H 1.08528480 0.48176302 2.78122227
H 1.90616665 0.45030698 -1.85999284
