10

O -0.238355 -0.17420065 2.0254505
C -0.10571677 -0.036345754 0.6895991
C 0.7022081 -0.6160759 -0.25852805
C 0.29232502 0.009554443 -1.4640865
N -0.6732413 0.88882136 -1.2776228
N -0.9039508 0.8470717 0.053953543
H 0.39352742 -0.8320919 2.3335938
H 1.4661081 -1.366828 -0.109105006
H 0.6756463 -0.15581457 -2.462755
H -1.6085511 1.4359093 0.46950057
