10

O -1.61550885 1.15678865 -0.53878924
C -0.50948128 0.23539651 -0.08494292
C 0.75679425 -0.84903189 1.05650381
C 1.16713113 -0.89589999 -0.26069195
N 0.30964104 -0.13975533 -1.03154665
N -0.37890340 -0.06613706 1.16687260
H 1.18729715 -1.32004492 1.92947064
H 2.00349714 -1.41681810 -0.70837926
H -1.36917947 1.29632155 -1.47553876
H -1.55128774 1.99918061 -0.05295810
