10

O 1.2495474 -0.55191714 -1.5582998
C -0.55753005 -0.24474055 1.4177743
C -0.73609185 0.93277764 0.71603954
C 0.45747876 -0.40451843 -0.3380281
N -0.049794175 0.8066715 -0.47304034
N 0.2453757 -1.1317706 0.7068669
H -1.296421 1.8206916 0.9754717
H -0.9502053 -0.51737404 2.3876667
H 0.7905411 0.50618154 -1.6882344
H 0.84709966 -1.2160014 -2.1462162
