10

O -1.9014611 -0.78047645 0.11672562
C 1.336067 0.21388847 -0.63401014
C 1.2556621 0.5981856 0.6894053
C -0.48020777 -0.27248898 0.1317128
N 0.010354254 0.27318248 1.1978304
N 0.14267968 -0.36323136 -1.0135103
H -2.5042322 -0.055362187 0.3630116
H -2.012809 -0.9946372 -0.831633
H 2.1572158 0.30297145 -1.3333431
H 1.9967313 1.0779679 1.313811
