10

N 0.70054984 0.6448547 0.11674025
C 0.041458353 -0.5017509 0.17590158
O -1.1251595 1.6665312 -0.9030864
N 0.6400753 -1.5697743 0.7199278
C 0.031141102 1.676645 -0.442534
O -1.1829951 -0.72834057 -0.24470659
H 0.60236704 2.616214 -0.48028377
H 1.6040103 -1.4896401 0.99183744
H 0.18614428 -2.4659936 0.6823511
H -1.4975916 0.1512546 -0.6161475
