10

N 1.5493406 -0.40802613 -0.9504974
C 0.26905176 -0.6237844 -0.55596304
O -1.4621621 1.4197674 1.598926
N -0.1810451 0.36340767 0.336414
C -1.3859915 0.3977359 0.8479769
O -0.4222243 -1.550071 -0.92465705
H 2.0974936 0.34861273 -0.5835449
H -0.23320381 1.4446657 1.1212317
H 1.9644074 -1.0830907 -1.5690819
H -2.1956666 -0.30921695 0.67919576
