10

N 0.72381787 0.41928881 0.46959612
C 0.11470550 1.61599308 0.61915540
O -1.02771980 1.93498567 0.24186236
N 0.55247164 -1.72512250 -0.33303371
C 0.01517614 -0.51152004 -0.15010369
O -1.20563011 -0.38789385 -0.62115467
H 0.72619595 2.37089475 1.13560183
H 1.51100490 -1.86759463 -0.06762327
H 0.06206333 -2.40691221 -0.88560668
H -1.47208537 0.55788034 -0.40869350
