12

C -0.034202855 0.8998002 -0.68681884
C -0.03258202 -0.61439145 -0.95112634
N -0.37617752 -1.1208906 0.36599955
N 0.42165706 0.93441445 0.69360673
C 0.053675648 -0.23414163 1.3476353
O 0.10028552 -0.4395326 2.5393524
H -0.7650544 -0.90350354 -1.7075299
H -0.27774915 -2.1018217 0.58176947
H 0.35433576 1.7840688 1.2358001
H 0.9639596 -0.94900274 -1.269839
H 0.6395098 1.4376205 -1.3565986
H -1.0476575 1.3073804 -0.792251
