11

C 0.61701524 0.5198866 -1.1871936
N -0.010455316 -0.67462873 -0.89544106
C -0.6520133 -0.59882045 0.40244058
O 0.73488784 1.2386191 -0.035888128
C 0.24333347 0.46155167 1.0576358
O 1.0165666 0.8980556 -2.254271
H -0.2894988 1.1219738 1.7431554
H 1.0926175 0.0029180583 1.5738908
H -1.6952617 -0.26566222 0.33409873
H -0.4393612 -1.1512574 -1.6733146
H -0.6178303 -1.5526359 0.9348872
