11

C -0.9374185 1.0509344 -0.15088408
N -0.29590306 0.3315872 0.83175665
C 0.039617192 -0.6133174 -1.504003
O -1.701701 1.9600995 0.02418791
C 0.8191112 -0.5192908 0.5134646
O -0.50069463 0.62956095 -1.3959866
H 0.68460274 -1.5513394 0.8440501
H 1.7742963 -0.10563902 0.86330193
H 1.0901667 -0.5977102 -0.7052096
H -0.6345121 -1.3637891 -1.0536488
H -0.33756462 0.77890366 1.732971
