11

C -1.4718271 0.7930612 -0.44994402
N -0.47770396 -0.08807535 0.12650262
C 0.8421923 0.025964247 -0.12555693
O 1.3870169 0.8460167 -0.842301
C 1.6750337 -1.025165 0.6097052
O 1.1874951 -1.8556943 1.3315709
H -0.9498895 1.5157951 -1.0797195
H -2.18341 0.2299486 -1.0632298
H -2.016945 1.329266 0.33268476
H -0.7503127 -0.8341773 0.75177336
H 2.75835 -0.9369399 0.4085144
