11

C -0.92968563 -0.27578892 -0.07273819
N -0.03706303 0.23124209 -1.09644945
C 1.09225961 0.77440189 -0.51738683
O 1.90310557 1.49831082 -1.02708475
C 0.09992720 -0.57328450 1.02576508
O 1.16653535 0.34299220 0.77270752
H -0.38331671 0.70138824 -1.91821181
H -1.66444848 0.47287610 0.24921911
H -0.27501663 -0.40178667 2.03572070
H -1.45819652 -1.17597317 -0.39642993
H 0.48589902 -1.59437809 0.94488854
