10

O 0.86741402 -1.77854102 -1.42523087
C 0.34847891 -0.93207612 -0.72221155
N 0.73331364 1.06250026 0.53914262
C -0.67313959 0.68391703 0.63585419
C -0.85018419 -0.54156821 -0.15867833
N 1.25133517 0.19399184 -0.18483595
H -0.89021131 0.58206818 1.70946233
H -1.24913182 1.55497007 0.28884590
H -1.78346270 -1.06769619 -0.27981162
H 2.24558764 0.24243410 -0.40253667
