10

O 0.84722817 1.6941898 1.641455
C 0.5712701 0.8493804 0.8110171
N 1.3289557 -0.1554273 0.26040217
C -0.8168419 -0.2660402 -0.6454376
C 0.42959931 -0.89486486 -0.6213295
N -0.72437155 0.75813967 0.21044396
H -1.7090322 -0.4959077 -1.209115
H -1.4521555 1.4137309 0.45185563
H 0.6850211 -1.3406814 0.46969146
H 0.8403266 -1.5625193 -1.3689831
