10

O 0.5382028 0.10279837 -2.376272
C -0.79342514 -0.5081481 -0.39185467
N 1.0950761 0.6457462 -0.14648262
C 0.1904085 0.0035517272 -1.2147119
C -0.49742833 -0.20662734 1.0173692
N 0.752644 0.5465944 1.0450321
H -1.6543217 -1.0582739 -0.7363999
H 1.9532372 1.1392016 -0.3880184
H -1.2434368 0.41950345 1.5295672
H -0.3409564 -1.0843464 1.6617709
