9

O 1.277813 -0.38572612 -0.6559331
C 2.0249958 -0.063061714 0.38401064
C -0.01938873 -0.6518179 -0.5273708
O -2.064676 0.6201534 -0.27272668
C -0.84984225 0.25400522 0.20791571
N -0.30852935 0.34559128 1.3366348
H 2.8303003 0.5484049 -0.09675771
H -2.5600612 0.97207564 0.4814037
H -0.3306116 -1.6396247 -0.8571765
