9

O -1.22055573 -1.14557593 -1.20735025
C 0.86597765 0.13908686 -0.24480619
C -0.13861465 -0.80620892 -0.54917397
O 0.63451142 1.19685815 0.70131485
C -0.60905851 1.33837033 1.07348176
N 0.74075817 -1.26433970 0.24607984
H 1.71618664 0.41010748 -0.86430977
H -1.46221920 -2.05092836 -0.95287468
H -0.52698564 2.18262999 1.79763813
