9

O -1.076694 -0.33845863 -1.7279962
C -0.76470906 0.31411666 1.622067
C -0.035437237 -0.31904283 -0.9315228
O 0.47225952 0.6026775 1.3193436
C 0.826301 0.3785043 -0.05615731
N 0.92986155 -1.0360091 -0.51949537
H -0.78472507 0.5491878 2.7121375
H -1.1710311 -1.2358828 -2.0865383
H 1.6041745 1.0849072 -0.3318382
