10

N 0.8046751 -0.16056117 1.6789608
C -0.3793697 0.14140047 1.3641564
O -0.794623 0.20886421 0.08870681
C 0.21302487 -0.085257955 -0.87051386
C -0.3868921 0.037485354 -2.2019885
N -0.81432396 0.120673075 -3.2728696
H 0.9227203 -0.158207 2.6889665
H -1.2151881 0.3838163 2.0258863
H 0.5975775 -1.099115 -0.72690964
H 1.0523994 0.6109017 -0.77439606
