10

O -1.12686351 -0.84137857 1.27075178
C -0.49028671 1.14225006 0.05557932
C 0.67654664 -0.97868957 -0.25498023
N 1.63748543 -1.60722216 -0.67718090
N 0.11089147 1.74011647 -0.88964959
C -0.25838367 -0.27326399 0.35876279
H -0.17659600 2.71747240 -0.91562493
H 1.47863440 -2.10261074 -1.55432749
H -0.62540952 -1.39674317 1.87877434
H -1.22601861 1.60006909 0.72789481
