10

O -1.0930448 -0.3514282 1.5080785
C -0.25927356 -0.14835349 0.42534053
C -0.20180851 1.2248529 -0.08493514
N 1.1090325 -2.041779 -0.5694568
N 0.37669647 1.5184935 -1.176459
C 0.38964057 -1.1418278 -0.1580287
H 0.7151708 -2.5975 -1.328454
H 0.3204098 2.5235395 -1.3354015
H -0.707294 1.9393538 0.57603437
H -0.64952946 -0.92535156 2.143282
