11

N -1.2305175 -2.506767 1.2257388
C -0.975188 -1.3922682 1.0572016
C 0.3438435 0.16776642 -1.5722742
C -0.624494 0.012876897 0.8265542
C 0.56484985 0.12138244 -0.11693426
O 0.8881684 1.473206 -0.48206934
H 0.16723245 1.575945 -1.2754823
H 1.2628535 -0.11963307 -2.1005425
H -1.4796575 0.5283607 0.3802647
H 1.4720235 -0.34635866 0.26966354
H -0.38911402 0.48548955 1.78788
