12

N 0.86807895 -1.714801 -0.031047786
C 0.53873193 0.6598562 -0.36233678
C 0.1182417 -0.83865064 -0.75741607
C 0.08390442 -1.0163293 0.878043
N -1.2776313 2.4362442 -0.96592766
C -0.4563827 1.668922 -0.69564635
N 0.56799674 0.34135905 1.0765558
H -0.05196618 0.9276556 1.6189144
H -0.38456297 -1.1115712 -1.6890311
H 1.5164919 0.90275407 -0.7867224
H -1.0144304 -0.70812553 0.09046614
H -0.508472 -1.5473133 1.6241488
