12

N -0.51501624 0.74168453 0.82644934
C -1.37053834 -0.35065607 0.68538678
C 0.68028151 0.41585119 0.04743370
C 0.68185665 1.11219672 -1.25386617
N 0.64622395 1.66784572 -2.26531492
C 0.52225288 -1.12992245 -0.09668227
N -0.87719924 -1.42251936 0.21282892
H -2.39841304 -0.26296202 1.02639532
H 0.77416988 -1.48220828 -1.09985607
H 1.59035094 0.68986619 0.58774370
H 1.17073875 -1.64707612 0.61761759
H -0.90470761 1.66789968 0.71186443
