10

O 0.08428603 1.0983448 -0.8339105
C 1.4042637 -0.51326346 0.4215328
C -1.0985715 -0.23427872 0.20795055
C -1.1124336 1.05279 -0.14466678
O 2.0299227 -1.5369836 0.5075722
C 0.23153807 -0.31881344 -0.5113835
H -1.7271961 1.9384495 -0.051327188
H 0.30208772 -0.9363599 -1.4123007
H -1.7216065 -0.92339605 0.7557079
H 1.6077092 0.37351066 1.0608252
