10

O 2.27675657 -1.22683089 0.22759557
C 1.49291615 -0.39950943 -0.15709689
C -0.00234534 -0.61290760 -0.20274062
C -1.22430408 0.91304762 -0.18500645
O -0.59541310 0.25000543 -1.22141429
C -0.75446121 0.19307802 0.83576213
H -0.27447462 -1.66284194 -0.34962908
H 1.79993667 0.62154352 -0.47275883
H -1.87710111 1.75257793 -0.38521348
H -0.84151011 0.17183735 1.91050151
