9

N 0.13238634 2.28846101 -1.66587584
C -0.59373856 -1.56819355 0.90132296
O -1.41711639 -0.71564439 0.72659433
C 0.43230931 1.44775066 -0.81221618
O 0.74380636 -1.38415186 1.03987157
C 0.80951481 0.66603406 0.12205319
N 1.20821428 -0.03138719 1.08252791
H -0.78662467 -2.64823916 0.97237309
H -0.52875126 1.94537053 -2.36665121
