9

N 0.9226458 1.2823535 0.37003765
C -0.9101322 0.428282 1.6162839
O 0.37099215 0.8762921 1.6263254
C 0.7233214 -0.40049142 -1.5029907
O -1.5992454 0.25847128 0.6510852
C 0.8120933 0.41777986 -0.5289395
N 0.69597036 -1.1137487 -2.5109582
H -1.2019594 0.24182549 2.6597505
H 0.18631414 -1.990764 -2.380594
