10

O 0.9557328 2.0910146 -1.165023
C 0.6707608 1.1158699 -0.5482556
O 1.1282322 0.75459564 0.70530754
C 0.5005921 -0.53752846 0.5671624
C -0.964236 -0.36852464 0.5078605
C -0.12262339 -0.14692101 -0.74251986
H 1.0784107 -1.4071825 0.8460103
H -1.5548233 -1.2797858 0.4778871
H -1.4299315 0.47214386 1.0175021
H -0.26211473 -0.6936819 -1.6659318
