10

O 1.44978949 2.09795193 -0.48345092
C -0.19734497 0.49528890 0.54295449
O 0.81202035 0.05651766 -1.29305294
C 0.16320860 -1.65576411 0.37913506
C -0.23194346 -0.64514460 -0.54439155
C 0.82192251 1.09049344 -0.42684239
H 0.25685425 0.24878931 1.50943339
H -0.78977802 -2.05024206 0.78653660
H -1.13554931 1.03639380 0.67066099
H -1.14917975 -0.67428459 -1.14098305
