10

O -1.2656305 -1.0566257 1.9797726
C -0.35999992 0.5898886 -0.60033995
O -1.3011594 0.71263534 0.51105213
C -0.8387503 -0.44165114 1.0562681
C 0.9718752 1.0659628 -0.31321615
C 0.2811273 -0.63140994 0.04769162
H 0.5542053 -1.5403391 -0.47696614
H 1.5872592 0.81637985 -1.1958233
H -0.83779395 0.5346725 -1.575435
H 1.2088673 -0.049512897 0.5669963
