12

C 1.0735984 0.19379203 0.78195244
C -0.31694162 0.5926567 0.3478055
N -1.0153849 1.5507652 0.8048202
N -0.905239 -0.17057957 -0.6673291
C -0.39403388 -1.2486849 -1.3406391
O -0.9972758 -1.8421357 -2.2062032
H 1.4131774 0.8629529 1.5763443
H 1.7833512 0.2600264 -0.049196035
H 1.0931414 -0.83233935 1.1644107
H -0.5133632 2.0463297 1.5359839
H -1.8433162 0.12133444 -0.9227343
H 0.6222862 -1.5341179 -1.0252153
