10

N 1.0406836 -0.11813253 0.4229829
C -0.4236658 0.30332905 -1.182599
C 0.95143527 0.2451605 -1.0587257
C -0.21286759 -0.09639295 1.0408642
C -1.1200671 0.15904127 0.06139342
H -0.9130976 0.46500376 -2.1351452
H -2.192871 0.21182182 0.20769577
H -0.3270317 -0.30369076 2.0955045
H 1.9068458 0.06946383 0.9130576
H 1.2906362 -0.93560416 -0.36502862
