13

C -0.5482956 0.026661847 1.7054491
C 0.025317352 0.16886012 0.3297163
N 1.1362865 0.78723884 0.23238854
O 1.5574944 0.87430394 -1.1023315
C -0.7150401 -0.41540366 -0.858812
O 0.06490411 -1.3124175 -1.6098517
H 0.082134 0.5291645 2.4413075
H -1.5566422 0.4543704 1.7474198
H -0.6357541 -1.0328636 1.9682785
H 2.4135933 1.3069158 -1.0233072
H -1.1018268 0.4121651 -1.47364
H -1.5790545 -0.98172176 -0.49386755
H 0.8568835 -0.81727386 -1.8627496
