13

C -0.67976428 0.75683653 0.79872186
C 0.04400482 -0.11821409 -0.19058374
N 0.25666955 -1.35032319 0.15872603
O -0.18062085 0.62959862 2.09975553
C 0.50382484 0.38329586 -1.51836040
O -0.07305561 -1.90465524 1.25100518
H -0.56708336 1.80308503 0.49725066
H -0.16448073 -0.32928854 2.26943872
H 0.74648014 -1.95241167 -0.51226981
H 1.26737575 1.16161371 -1.39642901
H -0.32855584 0.82639978 -2.07806939
H -1.75436185 0.51253612 0.75029406
H 0.92956726 -0.41847276 -2.12947951
