13

C 0.07174929 -0.16607954 -0.13965239
C 1.2444745 -0.17246017 -1.0619389
N -0.43214402 -1.2810757 0.29418114
O -0.8310282 1.1118039 1.7062461
C -0.58223385 1.1069921 0.32925645
O -1.4176759 -1.421666 1.0803349
H -1.2946476 0.27316287 1.8801879
H 0.006986997 -2.1519592 -0.024230938
H 1.0264566 0.39462844 -1.9748198
H -1.5091184 1.2501068 -0.25142512
H 0.079009205 1.9500427 0.10511115
H 2.1153753 0.2953179 -0.58615386
H 1.5227959 -1.188814 -1.3570968
