10

N 0.44837302 0.095466815 -0.61994976
C 0.32235783 -0.3653045 0.6518375
C -1.7727921 0.0023161515 0.03943508
N 2.436107 -1.0620607 1.9879316
C 1.4870139 -0.7592074 1.4055856
C -0.8596569 0.38220477 -1.0142657
N -0.8988926 -0.38583872 1.0987673
H -1.3756914 1.2904472 -0.36952636
H 1.3106855 0.23023406 -1.1238768
H -1.0975045 0.57174206 -2.055938
