10

N 0.6063051 -0.17295152 3.30327
C 0.35307968 -0.026273172 2.1853895
C 0.043351226 0.13715762 0.79821527
N -0.65363115 1.1227564 0.2845604
C -0.7015335 0.8628506 -1.0545257
C -0.025278028 -0.29209185 -1.3498542
N 0.4517441 -0.75351244 -0.15331222
H -1.2228038 1.5220319 -1.7352117
H 0.15358803 -0.81227726 -2.2777975
H 0.99517834 -1.5876902 -0.0007339606
