12

C 0.74397168 -2.25207613 0.31863644
C -0.88732871 -0.53458498 0.46367052
N 0.37214612 -0.93199047 0.11846078
N -1.08833066 0.75907627 0.19896698
C -0.17308716 1.73386290 -0.39439207
O 1.84155010 -2.67624212 0.04701339
H 0.72835985 1.85651269 0.21823675
H 1.10921874 -0.35091197 -0.28841917
H -0.08027871 -2.84387463 0.74820595
H -0.67732487 2.70163171 -0.45370286
H -2.00621127 1.10131365 0.43298929
H 0.11731532 1.43728308 -1.40966587
