12

C 1.4136225 -0.5366 1.8548859
C -0.70574534 0.56406087 -1.5412799
N 0.64199543 -0.19142416 0.7565253
N -1.2756307 -0.13906008 -0.39201656
C -0.67909706 -0.5344411 0.735747
O 2.5854568 -0.2607431 1.9501833
H -0.3015355 1.5408303 -1.2488767
H -1.493619 0.73026407 -2.2801855
H 1.1571878 0.311028 0.029477695
H -2.2532494 -0.3721343 -0.45786297
H 0.8237464 -1.0835016 2.607939
H 0.086867966 -0.028278844 -2.0145366
