12

C 1.072294 0.1918036 0.7808223
C -0.3159278 0.59439355 0.35018933
N -1.0170269 1.550264 0.80763817
N -0.9050937 -0.17068 -0.66679776
C -0.39285287 -1.2474602 -1.3417964
O -0.99400735 -1.8393719 -2.20787
H 1.4132143 0.8612428 1.5739489
H 1.7837646 0.2543326 -0.048809364
H 1.0877078 -0.83292687 1.1671176
H -0.51757765 2.0449855 1.5413334
H -1.8396637 0.122552134 -0.93225926
H 0.6251697 -1.5291352 -1.0235168
