11

C 1.2496586 0.8673229 -0.8395265
C -0.1383483 0.46975714 -0.40725967
C -1.2418609 1.0684657 -0.7579375
C -0.2730618 -0.81050783 0.39980584
O 0.577835 -1.6724517 0.32947236
N -1.3896904 -0.89648014 1.1632122
H 1.7284421 -0.0075599994 -1.2888218
H -2.0295303 -0.1256949 1.2494868
H -1.5491904 -1.7477801 1.6828884
H 1.8432633 1.1705836 0.029163832
H 1.2224827 1.6843455 -1.5604839
