11

C -1.6423149 0.2525899 -0.5697246
C -0.42391247 -0.057562772 -0.7647814
C 0.83506745 -0.4485476 -1.4415892
C -0.28507417 0.69327873 0.7068557
O 0.36210456 1.7067978 0.74594164
N -0.5665769 -0.086873844 1.7918653
H 0.591111 -0.88936764 -2.4125583
H -0.42339823 0.3488756 2.6915846
H 1.3922905 -1.1841102 -0.8545402
H 1.4660654 0.43157455 -1.599042
H -1.305362 -0.76665455 1.7059888
