9

O 1.83466359 0.15881900 -1.27585200
C 0.87315358 0.25213312 -0.57262714
N 0.00210023 -0.91387568 -0.16960870
C -1.14634684 -0.41161537 0.71987981
C -0.83270670 0.87981341 0.74874863
O 0.34954701 1.29839797 -0.00112963
H -0.35851610 -1.38000633 -1.00484292
H 0.57120808 -1.60998128 0.31904970
H -1.29310279 1.72631516 1.23638193
