10

N 1.0740796 -0.22473605 1.7247852
C -0.9192214 -0.7746339 -1.0648777
C 0.4213129 -0.16627596 0.6599152
C -1.0587335 0.7456226 -1.0167435
C 0.05050159 1.080173 -0.11584608
O -1.4093553 -1.5210413 -1.8561116
O -0.12536398 -1.2378852 -0.01575147
H -0.053371098 1.9874734 0.4857069
H 0.846243 1.2916723 -0.86073655
H 1.173908 -1.180369 2.0596595
