10

N -1.13421687 -1.21569274 1.18940344
C 0.36802939 0.34464706 -1.52471732
C -0.44978050 -0.52518399 0.40313720
C 0.39194576 0.68543667 0.74786333
C 0.64838223 1.43204351 -0.48937602
O 0.67737087 0.34632521 -2.67698090
O -0.34616506 -0.71198823 -0.95998254
H -1.62631522 -1.96599192 0.70957932
H 0.04758144 1.25905249 1.61286486
H 1.42316818 0.35135190 0.98820860
