11

N 0.1398707 1.6476786 -1.2880832
C -0.519784 0.5783645 -0.6345016
O 0.29469427 -0.15656789 0.22454572
N 0.5422455 -1.3991979 1.9574078
C -0.36812687 -0.7307149 1.2537824
N -0.3191669 0.45228922 -2.0338438
H 1.5273608 -1.4394449 1.7176675
H 0.24121112 -1.8910111 2.7807214
H -0.5178085 2.3865807 -1.520973
H 0.5207402 -0.100534335 -2.1884608
H -1.5412363 0.65255815 -0.2682622
