11

N 0.37211307 -1.20933173 2.11713934
C -0.42735460 -0.46461138 1.35754791
O 0.27068550 -0.18353824 0.23414117
N 0.38752895 1.39619425 -1.51460548
C -0.43156946 0.58488407 -0.69204882
N -0.35048305 0.23512873 -2.06514641
H 0.03111256 -1.51362802 3.01238770
H -1.39136357 0.91900316 -0.30454334
H -0.12065595 2.21873680 -1.82753960
H 1.31134975 -1.48617932 1.85117456
H 0.34863692 -0.49665824 -2.16850663
