9

N 0.6427328 1.3336047 -0.52596635
C -0.48716727 0.7946923 -0.26488203
C 0.71089774 -1.1673675 0.5471957
C -0.5607736 -0.47824112 0.38220719
N 1.888352 -0.9986162 0.7270124
H -1.4557695 1.2578509 -0.48696578
H 0.22210565 -2.0097313 -0.088870406
H -1.483361 -1.0138435 0.5795922
H 0.5229832 2.2816517 -0.8693229
