9

N 0.39192617 1.0870668 0.30035663
C 0.45115992 -0.13134697 0.88512075
C -0.60493374 -0.18446617 -1.0477998
C -0.19363426 -0.9980498 0.030768268
N -0.24656998 1.0793774 -0.87771064
H -0.34616986 -2.058806 0.16333298
H 0.93523896 -0.28117782 1.8391756
H 0.7602243 1.9579812 0.6459911
H -1.1472414 -0.4705785 -1.9392349
