12

N -0.272046 -0.012478747 -2.0499423
C -0.15833168 -0.038076427 -0.65414625
C -1.0315135 -0.31316108 0.33525407
N -0.35624105 -0.103194386 1.5478388
C 0.93403417 0.3324446 1.3308889
O 1.7728155 0.65749663 2.1495652
N 1.0514936 0.31611907 -0.05562851
H 0.28892943 -0.72875035 -2.4989812
H -1.234532 -0.1213869 -2.339135
H -2.0489352 -0.67003113 0.29351124
H -0.7649935 -0.08766084 2.464949
H 1.8193197 0.7686795 -0.5241737
