10

C 0.05697713 -0.34254578 0.4112973
C 0.69225395 -0.43689156 -0.95159686
O -1.3590503 -0.43233663 0.4592857
C -0.7577201 0.80454594 0.81148046
H -0.83366793 1.0812384 1.8616174
H 0.13921928 0.17163666 -1.6740292
H 1.7294171 -0.08782442 -0.9174855
H 0.5551612 -0.90140605 1.2058651
H 0.69339234 -1.4723493 -1.3069503
H -0.9159827 1.6159327 0.10051581
