10

C 0.0046501793 0.5117935 -0.02582064
C -1.0587415 -0.5498526 -0.3664959
O 0.17813477 1.5367106 -0.7930784
C 1.3232696 0.030616378 0.37585387
H -0.81000733 -1.0052551 -1.3286176
H -1.1201168 -1.3354452 0.39398143
H -0.19906756 0.8517964 1.0650764
H 1.540213 -0.31157252 1.3835267
H 2.1699722 0.32500085 -0.2475962
H -2.0283065 -0.053792108 -0.45682967
