9

O 0.23336623 -0.10399404 1.77630127
C 0.23587816 -1.40830451 -0.26425896
N -0.99927746 -1.20496213 -0.05825212
N -0.00006069 1.11722422 -1.40304140
N -0.08747352 1.12499160 -0.16515630
C -0.02087885 -0.19081800 0.42932335
H 0.87823637 -2.16254224 -0.69382690
H -0.15000489 0.73048141 2.08393525
H -0.08978537 2.09792381 -1.70502413
