11

O -0.068799466 -0.6363804 -0.91277075
C 0.11509219 0.5984005 1.1940037
C -0.36535996 -1.3374044 0.2589019
O 0.37457132 -0.6980012 1.311231
C 0.22799698 0.7098927 -0.6587668
N -0.08262194 1.6550283 -1.4523096
H 0.82581973 1.128482 1.8498014
H -0.8091234 1.3683351 -2.1032221
H 1.2355467 0.84325373 -0.15671572
H -1.4325451 -1.2626601 0.49509534
H -0.020577123 -2.3689466 0.17475176
