11

O 1.681027 0.66830957 -0.5163117
C 0.76006776 -0.047675714 0.24996433
C -0.3377249 0.68923587 1.0456574
O -1.3505515 -0.14459993 0.41666323
C -0.4248047 -0.6849508 -0.4436673
N -0.5582892 -1.3715762 -1.4840714
H 1.2599036 0.9041734 -1.3525888
H 1.318248 -0.7550583 0.86866057
H -0.34595874 0.5660265 2.1300476
H -0.460706 1.7384022 0.7624353
H -1.5412115 -1.5622865 -1.6767892
