11

N -0.7852597 -0.08263253 -0.7557566
C 1.1852882 0.19130963 0.36995837
O 0.83973515 1.1029829 -1.8897876
C -0.9754676 -0.5624741 0.5943889
C 0.4434411 0.48784754 -0.92623633
O 0.3327462 -0.652983 1.1176063
H 2.1371658 -0.31336004 0.18249454
H 1.3894658 1.1366651 0.8915531
H -1.4324077 -1.5558808 0.62350327
H -1.5923842 0.13505249 1.1830176
H -1.5423225 0.11347265 -1.3907415
