9

O -0.24240710 1.95197239 -0.60274769
C 0.42968577 -0.39611178 -0.68392693
N 0.23939245 -1.35243314 0.26396141
N -0.38989998 -0.88225855 1.33289286
N -0.62493956 0.37839297 1.11414806
C -0.14095610 0.70912715 -0.10304806
H 0.51106147 -2.32184521 0.24404116
H -0.70379775 2.48534353 0.06005082
H 0.92186074 -0.57218713 -1.62537158
