10

N 0.8246667 -1.5095943 -0.45230615
C -0.20248719 -0.6492497 -0.36067212
O -1.3347061 -0.81457347 -0.77894706
C 0.20147038 0.64684 0.36351824
O 1.3325748 0.817665 0.7839378
N -0.8243753 1.5082254 0.4528562
H 1.712379 -1.2338725 -0.06099834
H 0.7024573 -2.3986976 -0.9063559
H -0.69998145 2.398755 0.9012486
H -1.7119983 1.234502 0.057718847
