10

N 1.4344741 0.45813757 0.86196274
C -0.42626166 -0.41722938 -0.33341846
O -0.2727039 1.8730208 0.2829038
C 0.25098246 0.7762802 0.3020883
O 0.087741464 -1.5990572 -0.35111907
N -1.5754728 -0.4497373 -0.9247027
H 1.7681996 -0.4918216 0.824807
H 1.9662974 1.1777374 1.3260285
H -2.1619744 0.37007383 -1.0259461
H -1.0712821 -1.6974041 -0.9626037
