10

O -2.3861206 0.9573789 0.40816242
C -1.7678653 -0.056879126 0.6262707
C -0.35667276 -0.22364151 0.21142814
N 0.27493158 -1.3399591 0.4657145
O 1.5358508 -1.1750816 -0.031039523
C 1.638097 0.048293617 -0.57778853
C 0.4697943 0.71851194 -0.46397465
H -2.2109585 -0.92443436 1.1499784
H 2.6039793 0.28489766 -1.0019646
H 0.1989643 1.7109135 -0.7867869
