10

O -0.11432351 1.2141448 0.9222229
C -0.7514196 0.4310782 -0.13609484
O 1.6991018 0.2541164 1.9376271
C -0.4006949 0.73884416 -1.4835347
C 0.8314025 0.27198252 1.1277704
C 0.3670292 -0.6660458 0.015966749
H -1.7442863 0.11178871 0.19385013
H 0.0022700622 -1.6500435 0.31324914
H 1.1033318 -0.734759 -0.79375577
H -0.99241096 0.028893316 -2.097301
