10

O 0.63026032 0.12495003 -1.94003293
C -1.15688612 0.21424543 -0.29196731
C 0.26487925 0.04979877 -0.79576192
C 1.09042131 -0.22192586 0.45116445
O -1.05812657 -0.00152407 1.14184602
C 0.13743493 -0.24668811 1.62357182
H -1.55441520 1.21778167 -0.46618480
H -1.84674300 -0.52239632 -0.71235103
H 1.64172007 -1.16684575 0.38069772
H 1.85145490 0.55260434 0.60901762
