10

O 0.69851446 -1.4699775 -1.4126153
C 1.022584 0.15585992 0.42925486
C 0.29232344 -0.70637333 -0.5843238
C -0.57220006 0.9752991 0.67675376
O 0.17057896 0.14530669 1.5483395
C -1.089558 -0.09366784 -0.32096463
H -1.5563369 0.28098807 -1.232916
H 2.0840116 0.19532703 0.666004
H -1.774036 -0.7542257 0.21668082
H 0.72411853 1.2714634 0.0137868095
