11

N -0.6768423 -1.4166431 -1.48269
C 0.69795406 -0.7408896 0.4063495
C -0.47816783 -0.6194123 -0.51881206
N 1.2397754 0.5513748 0.7703119
C 0.45351183 1.5343002 0.6190369
N -1.3951432 0.44890133 -0.23934472
N -0.93733555 1.4890138 0.27178898
H 1.4709222 -1.3548856 -0.06293704
H 0.7935509 2.5419629 0.83831376
H 0.39665556 -1.2482555 1.3329614
H -1.5648813 -1.1854668 -1.9349786
