11

N 0.87798307 -0.61425256 -1.87488731
C 0.20141830 -0.39754053 -0.82636206
C 0.77335109 -0.54426659 0.55396678
N 0.29609562 0.48524564 1.45303189
C -0.77663254 1.06191286 1.10097214
N -1.63197543 0.71152440 0.00429312
N -1.18007358 -0.01531253 -0.90134050
H 1.86492987 -0.52272609 0.50207792
H 0.27270231 -0.51671428 -2.69387584
H 0.48637484 -1.51594822 0.97857248
H -1.18417366 1.86807768 1.70355123
