11

N 0.72806853 -0.7159599 1.270129
C 1.2770318 -0.08452597 0.120783605
C -1.025277 -0.013362792 0.15526557
N 0.81444365 1.220432 -0.0626874
C -0.46200234 1.3403006 -0.02831129
N -0.54304945 -0.6971047 1.2870551
N -1.0805091 -0.70794696 -0.957614
H -0.98899966 2.2772284 -0.121104434
H 2.3412266 -0.2432849 -0.00993414
H 0.2659038 -0.6975227 -0.889359
H -1.3268368 -1.6782528 -0.7642233
