9

O 0.5276905 1.976645 0.62279975
C 0.08886768 -0.30539545 0.006582596
C -0.37117285 -1.0232277 -0.83838016
C 0.60638857 0.6289328 1.0202756
C -1.3332437 -2.5225003 -2.602818
N -0.87809885 -1.8180948 -1.7720965
H 0.07894819 0.44944337 1.9693177
H 1.6685393 0.43088144 1.1939218
H -0.3879189 2.1833158 0.4003975
