9

O -0.24307886 -1.2146829 1.7569048
C -0.19040209 0.12679848 1.3348218
C 0.11691911 0.26286724 -0.10071126
C 0.34060705 0.33164856 -1.2816056
C 0.60063964 0.41472834 -2.6404228
N 0.8150231 0.48301074 -3.7795153
H -0.91853654 -1.6738476 1.2438624
H 0.6014118 0.5999335 1.9201349
H -1.1225832 0.6695436 1.5465311
