12

C -1.0361612 1.7878903 -0.9545416
N -0.738457 0.927648 0.17376918
C 1.2013701 -1.9901631 0.8882973
N 0.365176 -0.9125219 1.0195063
C 0.041274823 -0.04228183 -0.018520713
O 1.4838127 -2.7421305 1.7897115
H -2.1141589 1.7751292 -1.1381729
H 1.5945474 -2.1000233 -0.13940851
H -0.038845014 -0.7352978 1.9326959
H 0.52443653 -0.2944047 -0.9729026
H -0.5157593 1.508172 -1.8831961
H -0.76723605 2.817983 -0.69723785
