12

C -0.108710185 -0.18805821 0.14585288
N -0.86082125 0.55632675 -0.59883755
C -1.9733418 0.17573565 -1.379523
N 1.0797039 0.29345036 0.68081146
C 1.9833616 -0.45257777 1.388469
O 3.0151556 -0.02108601 1.8517766
H -0.70589054 0.892107 -1.6563779
H -2.6173568 1.0080028 -1.6320816
H -0.37192002 -1.2187845 0.3718578
H 1.2988954 1.2755679 0.569143
H 1.6626905 -1.505562 1.4922793
H -2.4017668 -0.8151221 -1.23337
