12

C -0.84980102 -1.61078474 -1.34033685
N -0.43781368 -0.30801324 -1.21002424
C 0.53260820 0.09887424 -0.27046212
N 0.10010466 0.72128326 0.82491045
C 0.73014711 1.28754858 1.83558515
O -1.59503600 -2.00805403 -2.20984164
H -0.91399311 0.75933669 0.87199053
H -0.69768945 0.28995290 -1.98619535
H -0.41952085 -2.24987636 -0.54614770
H 1.59339730 0.01563811 -0.46045380
H 0.14558574 1.70431045 2.64176472
H 1.81201055 1.29978439 1.84921046
