11

C -0.93680656 1.3034028 0.29446688
N -0.08694292 0.15988733 0.028270049
C -0.38244125 -1.150329 0.010135653
N 0.69524515 -1.8584257 -0.2747569
C 1.6400434 -0.89726275 -0.42358208
N 1.2191545 0.33798206 -0.25050393
H -0.5763293 1.8306264 1.1804374
H -0.9156806 1.9797603 -0.5631776
H -1.9566853 0.95307034 0.46381736
H -1.3714981 -1.5422431 0.20324707
H 2.671941 -1.1164688 -0.668354
