11

C -0.04906560 2.26687821 -0.40567675
N -0.34721794 1.64577899 0.81805698
C -0.18072628 0.22646771 0.74105455
N -0.01681453 -0.36740782 -0.35657302
C 0.07580691 -1.81721972 -0.34015740
N 0.97740322 2.42292735 0.27129712
H -0.25577523 -0.25824394 1.72066894
H -0.51369020 2.47627996 -1.36065494
H -0.72327179 -2.22998399 -0.96415476
H 0.00455634 -2.25217782 0.66614827
H 1.02879512 -2.11329905 -0.79000909
