11

C 0.99561715 0.5716533 -1.5514342
N -0.77898437 0.010689518 1.5602846
C -1.211356 -1.2859316 1.6861385
N 0.5505492 -0.11179378 -0.35378474
C -0.16777228 0.52917063 0.47468475
N -0.35782903 -1.9673024 1.0879807
H 2.0728517 0.4139062 -1.6701529
H -0.3412953 1.6135726 0.42536873
H -2.0589592 -1.5581653 2.3131254
H 0.79636264 1.6539172 -1.54715
H 0.5008157 0.13028397 -2.4250605
