10

N -0.92261748 -1.18916464 1.10030579
C -0.71299156 0.21632354 1.13280527
C 0.04000525 0.57490190 0.08277868
O 0.45382696 1.80802808 -0.23846399
C 0.32609150 -0.68418841 -0.66681303
N -0.35732230 -1.72050807 0.11288186
H -1.13778697 0.81668061 1.92559378
H 1.39348170 -0.92708853 -0.72258264
H -0.07506905 -0.68377510 -1.68648987
H 0.99238161 1.78879073 -1.04001584
