10

N -0.59821993 1.5405575 -0.33086374
C 0.26742193 -0.5582529 0.021104114
C 0.43741217 0.7866139 0.36478856
O 0.9728842 -1.6517674 0.3910071
C -0.8440235 -0.57147294 -0.81418097
N -1.3576396 0.6573603 -0.963835
H 1.7351103 -1.3823364 0.91583043
H -0.60149175 1.3028322 0.9153922
H -1.3010216 -1.4372177 -1.2776847
H 1.2895676 1.3136837 0.77844185
