10

N -0.65699893 -1.2197121 1.1882336
C -0.17677031 -0.3063335 0.25690693
C -0.7816331 0.7299976 -0.3768389
O 0.1406749 1.2684361 -1.2479168
C 1.2332804 0.5179989 -1.0799485
N 1.1210052 -0.42646703 -0.20827477
H -1.3228227 -0.83898866 1.8443315
H 0.10314019 -1.6845908 1.6654695
H -1.7565125 1.1903906 -0.36115155
H 2.0966365 0.769269 -1.680811
