11

C 0.5103457 -0.9637417 1.5009398
C 0.16580482 -0.124173716 0.3196397
N 0.63540316 1.0346825 -0.008876253
C -0.033661094 1.3587357 -1.1809846
C -0.8800012 0.35873562 -1.4995931
O -0.76262146 -0.6062393 -0.5414568
H -0.38320604 -1.1984357 2.0866444
H 1.2147025 -0.41408744 2.1282632
H 0.96935755 -1.9080846 1.1939119
H 0.14611824 2.2883444 -1.7022009
H -1.582242 0.17426434 -2.2962875
