11

C -0.059332862 -0.5935794 1.7273977
C -0.399198 1.4069318 -1.2876788
N 0.18090789 -0.8215482 -0.7451595
C -0.0622943 -0.1336721 0.31352597
C 0.012786862 0.12895152 -1.7665738
O -0.34040436 1.176824 0.08689781
H 0.018252935 -0.1689234 -2.8095405
H -1.0158544 -0.35197228 2.1963189
H 0.82302576 1.1033584 -1.7558883
H 0.11333804 -1.6686856 1.7569705
H 0.7287722 -0.077684924 2.2837305
