11

N 1.373058 0.2466282 -1.3280352
C -1.5598928 0.36275303 0.76502246
C 0.46099895 0.05498598 -0.31169698
N 0.7099838 0.06692767 1.0713977
C -0.07588755 -1.0718917 0.48972073
N -1.4715492 -0.9035367 0.790397
N -0.31537664 1.0266336 0.49419647
H 0.9532058 0.29704535 -2.2478623
H 0.37810138 -2.0574763 0.5125802
H 2.0022037 1.0216655 -1.1569816
H -2.4548457 0.95626533 0.92126137
