11

N 0.99038076 -0.8461517 -1.5268922
C 0.24835512 -0.2233262 -0.5575365
C 0.5876748 -0.2791898 0.8117761
N -0.11968956 0.38181484 1.7012041
C -1.1499115 1.0892047 1.2087688
N -1.5081961 1.1603422 -0.06273656
N -0.7997671 0.48491147 -0.9615672
H 1.5266962 -1.6564107 -1.2647372
H 0.5430228 -0.90412265 -2.4295833
H 1.4350606 -0.8622871 1.1681932
H -1.7536262 1.655215 1.9131106
