11

N 0.91748951 -0.78318355 -1.50154180
C 0.34818765 -0.20271292 -0.38777744
C 0.14681048 -0.53028865 1.04488168
N 0.97757121 0.62202529 0.56025746
C -1.30152505 0.93829533 0.75878131
N -0.23841786 1.14306179 -0.18502927
N -1.11480585 -0.04754672 1.53672059
H 1.50927732 -0.14765353 -2.02274738
H 0.25145997 -1.25554130 -2.10002526
H 0.66129877 -1.34186303 1.54951454
H -2.15734633 1.60540735 0.74696540
