11

C -0.72985125 -0.16990313 -2.3141704
C -0.16358182 -0.12052538 -0.9690415
C 0.3191312 -0.08642277 0.13509238
C 0.97849596 -0.100303516 1.4399921
O 2.0850706 -0.56850463 1.609898
N 0.24507818 0.4712464 2.4385078
H 0.008552036 0.15342176 -3.0525582
H -1.6075132 0.47722325 -2.3995068
H -1.0307971 -1.1924148 -2.5623724
H 0.61128706 0.4033126 3.3749228
H -0.715872 0.7328703 2.299236
