11

C 1.1018896 -0.20491375 -1.3364176
C -0.15755315 0.176077 -0.5712724
O -1.193749 0.45294857 -1.1497065
C -1.2625494 -0.026151102 1.6560959
C -0.06290787 0.106274694 0.855892
N -2.2802055 0.46136382 1.1254294
H -1.1924613 -0.35781074 2.7011895
H 1.9679567 -0.39117163 -0.69704443
H 0.8680205 0.29739574 1.3790599
H 0.8804901 -1.1072296 -1.9156419
H 1.3310688 0.593217 -2.0475836
