9

O 1.56989676 0.46333107 -0.70964031
C 0.67474111 -0.57619051 -0.80596145
C -0.30538243 -0.34728887 0.07734448
O -1.38368046 -1.07862051 0.43791401
C 1.20171519 1.37928341 0.21895562
N 0.04109472 0.85524540 0.69067763
H 0.87607642 -1.36159085 -1.51519954
H -2.19266331 -0.62027670 0.16773845
H -0.48179800 1.28610719 1.43817097
