12

C 0.12257765 -0.14653826 0.054701753
N 0.34645298 -1.3817888 -0.4437631
C 0.27323017 2.2703564 -0.37931925
N 0.22514011 0.9670648 -0.7940566
C -0.3407889 -2.1385856 0.46765015
O 0.35224807 3.2181869 -1.130239
H -0.042395715 -2.1220663 1.5255582
H 0.43466225 0.10361087 1.0746468
H -0.7635286 -3.0879738 0.13760461
H 0.23931478 2.3828745 0.7228125
H -1.0423969 -0.86561936 0.55637544
H 0.19548403 0.80047894 -1.7919716
