10

C 1.088359 0.6600144 0.08043856
N -0.98133993 0.93146324 0.6757827
N -0.29439893 1.9470752 1.0472699
C -0.58000135 -1.1830742 -0.45411348
N -0.12873396 0.09913972 0.053261183
N 1.0043442 1.8162192 0.6933651
H 1.9785575 0.21973462 -0.34479094
H -0.61711866 -1.9160155 0.35405722
H 0.10675845 -1.5234294 -1.2303245
H -1.5764264 -1.0511272 -0.874946
