10

N -1.595334 -0.37843308 -0.39882657
C -0.2967224 0.059441254 -0.32891348
O 1.9401772 -0.32962218 2.2714863
N 0.37800077 0.75097215 -1.1465381
C 1.461294 0.054585405 1.2491006
O 0.22462381 -0.37372196 0.8673103
H -0.15566245 0.99344444 -1.9746428
H -1.8545918 -1.1185248 0.23710886
H 1.9157165 0.7556752 0.5356012
H -2.0175016 -0.41381648 -1.3116859
