10

N 0.54539186 1.6847247 0.23953849
C 0.1579421 0.3996454 0.10992318
O -1.2068995 -2.180705 0.78441346
N -0.63513064 -0.15490155 -0.7642234
C -0.31777245 -1.6839572 0.178481
O 0.5839772 -0.49440724 0.94113964
H -1.1929835 0.3391416 -1.449733
H 1.2548953 1.8960859 0.92255497
H 0.4397722 -2.1466107 -0.46046072
H 0.3708077 2.3409839 -0.5016335
