10

C -0.9908273 0.3846882 -1.3102967
O -0.5397541 -0.39354563 -0.19116464
C 0.5233639 0.097295076 0.4343664
O 1.1120712 1.1075239 0.14507471
C 0.9652678 -0.7664822 1.6123687
O 0.40886486 -1.7742971 1.9469713
H -1.8502917 -0.15539514 -1.7055293
H -1.2835376 1.3867363 -0.9845448
H -0.20256507 0.4625641 -2.0640235
H 1.8574082 -0.3490874 2.1167777
