10

C -0.34254697 -0.49816042 -0.61817604
O -1.1239223 0.024499912 -1.5561916
C 1.0209849 0.589323 0.5751498
O 0.29282743 -0.16047406 1.4919635
C -0.8078598 -0.55889994 0.75511056
O -1.8554702 -0.9258274 1.2099458
H -0.7917827 -0.23747554 -2.425875
H 2.0984557 0.48343036 0.71133906
H 0.6698916 1.6083565 0.4259998
H 0.8394223 -0.32477224 -0.56926584
