9

N -0.21925117 0.33757102 0.40834793
C 1.0302279 0.5276952 0.31341538
N -2.0354545 -0.8371514 -0.40431473
C -0.7894386 -0.6092413 -0.45539898
O 1.6691804 1.4028292 1.0887493
H 1.0007097 1.8059196 1.6674358
H -2.2805054 -1.5452532 -1.0929862
H 1.7247895 0.03488721 -0.373436
H -0.10025784 -1.1172563 -1.1518124
