12

O 1.5347012 -0.919449 -0.05960415
C 0.615683 -0.22246762 -0.8002856
C 0.08668942 0.99319386 -0.23073965
O 0.4439425 1.2711323 1.0417831
C -0.883716 -0.364367 -0.22782534
O -1.0256848 -0.63007176 1.1847496
H -0.31059456 1.794959 -0.846401
H -0.116485 0.6111743 1.5864077
H -0.8865257 -1.4833882 0.31453982
H 0.6682465 -0.39086303 -1.8706447
H 1.6386945 -0.41607976 0.7596833
H -1.7649511 -0.24377313 -0.85166305
