10

N 1.4861581 0.108640514 -1.1301172
C 0.1508838 0.99584126 0.4399167
N -1.4609107 -1.1317785 0.23817797
N 1.2025595 1.1638638 -0.5450382
N 0.35662332 -0.04665499 1.5144391
C -0.5156605 -0.2602228 0.62279934
H 2.2565715 0.33371678 -1.7755761
H -0.27564406 1.9490352 0.74093735
H -1.3848201 -2.0732248 0.5933632
H -1.8157609 -1.0392165 -0.698902
