10

N 0.27790493 -0.0467659 1.6801867
C -0.5647915 0.015404248 0.68604034
N 0.64744097 -1.1821138 -0.7625591
N 1.2987605 -0.78339916 1.6658858
N -0.70799595 0.58164424 -1.7081606
C -0.0851105 -0.1867619 -0.7411193
H 1.9583408 -0.3927967 2.3580527
H -1.6332511 -0.009760238 0.8908078
H -0.3297999 0.4637176 -2.6353648
H -0.8614981 1.5408316 -1.4337692
