12

N -0.92667997 2.0791943 1.79053
C -0.86024594 1.2737502 0.96595764
C -0.76213104 0.22375885 -0.068212144
C 0.39476344 0.47464466 -1.0839841
N 1.4850106 -0.4108239 -0.67931354
C 1.0065081 -1.194901 0.19819324
N -0.3447947 -1.0542029 0.50774986
H -1.7333 0.13477552 -0.56395787
H 0.07427939 0.21388805 -2.0979013
H 0.72836345 1.5157075 -1.0912864
H 1.576782 -1.9902256 0.67165273
H -0.6385554 -1.2655656 1.450572
