12

N -0.09088035 0.92174850 1.40359232
C -1.11003869 0.23023688 1.08858600
C 0.76202741 0.96075597 0.21675373
C 0.16250348 -0.07849754 -0.77683912
N 1.47711939 -2.35293529 -0.78407623
C 0.91093140 -1.34840918 -0.78752256
N -1.18022953 -0.24928426 -0.21891006
H -1.63580624 -1.13853190 -0.37033386
H 0.11577448 0.30747875 -1.79833184
H 0.73009006 1.96325971 -0.22100735
H 1.79851712 0.73832449 0.48309406
H -1.94000860 0.04585396 1.76499503
