11

O 1.2166613 -1.5702045 -0.771848
C -1.2804167 -0.40907648 0.2874615
C 1.6705108 -0.6881575 -0.10196077
O 1.0433125 0.44829768 0.27509815
C -0.3079306 0.67903703 -0.042218693
N -0.65008754 1.8059875 -0.47993472
H -1.1279593 -1.2648352 -0.3742873
H 2.6907907 -0.66103816 0.30700907
H -2.286246 -0.007999433 0.16865742
H 0.16594021 2.4107094 -0.58787054
H -1.1345751 -0.7427201 1.3198938
