11

O 0.5741126 1.7506317 0.64241827
C -0.31545898 -0.7152036 0.93112195
C 0.13614419 -0.7926587 -0.43439773
O -0.29870617 0.4279274 -1.0812435
C -0.33754522 1.3980905 -0.2062105
N 0.82346946 -1.6440486 -1.0702655
H 0.7079506 0.87857276 1.1345642
H 0.96772873 -1.3753185 -2.0394025
H -1.4020967 -0.6788798 1.030236
H -0.99817574 2.2193427 -0.48299256
H 0.14257708 -1.4684557 1.576172
