11

O 1.6802423 0.6641275 -0.5165212
C 0.761448 -0.04627949 0.25045928
C -0.33786032 0.69038695 1.0439545
O -1.3506856 -0.14644238 0.41706997
C -0.4230796 -0.68592185 -0.4421249
N -0.5588583 -1.3756971 -1.4784613
H 1.2615119 0.90225726 -1.3536721
H 1.3166006 -0.75572044 0.8709896
H -0.34711653 0.57384324 2.129514
H -0.45991594 1.7381692 0.7546408
H -1.5422869 -1.5587227 -1.6758487
