10

O -1.25632437 -0.87534615 1.49876217
C -0.43234111 -0.31037940 0.61638719
N -0.80577210 -0.40192589 -0.74985990
C 0.06625850 0.18507673 -1.56850802
C 1.07028505 0.67893859 -0.54518257
N 0.65204060 0.30631253 0.81348302
H -1.64833258 -0.87294684 -1.04962726
H 1.17245084 1.76734709 -0.62636317
H 2.05799704 0.25953701 -0.76719951
H -0.87626182 -0.73661350 2.37810798
