10

O -1.1845825 1.3333933 1.1873064
C -0.39829397 0.50822586 0.49624166
N 0.7601613 0.087240756 0.7715457
C 1.0769925 -0.7771157 -0.37399203
C -0.073266104 -0.79954207 -1.3616995
N -0.9157692 0.017423494 -0.73086673
H 1.9855466 -0.4248817 -0.8761094
H -1.8336247 0.27035573 -1.070272
H -0.70617455 1.5817418 1.9912916
H 1.2890106 -1.7968415 -0.03344572
