12

N 0.68501884 0.085826136 -0.10607002
C -0.33458975 -0.8847094 0.20869683
C 0.49310702 1.4168034 0.26572773
C 0.13435599 -2.1761713 0.6753244
N -0.52143997 1.8000242 0.92643625
C -0.10743649 -0.4572121 -1.2019005
N 0.47841033 -3.2183115 1.0287795
H -1.2269552 -0.50153285 0.6960403
H -0.87038743 0.19021891 -1.6271431
H 0.42752886 -1.1089059 -1.8911148
H 1.3148246 2.052454 -0.07999207
H -0.47243702 2.801516 1.1052157
