12

C -0.36558628 -0.62630504 -1.3894709
C -0.34121943 -0.59875876 1.1160032
N 0.113377176 0.6983897 1.1221684
C 0.89703065 1.0999187 0.11610202
O 1.2008293 0.21778913 -0.74873525
H -1.288031 -0.072676316 -1.2465591
H 0.10037402 -0.42128313 -2.3498344
H -0.45121866 -1.6866013 -1.1906098
H 1.1400453 2.1585538 0.018354382
H 0.42914915 -1.3500942 0.98151106
H -1.1183393 -0.8070119 1.8473095
H -0.31641108 1.3880792 1.7237611
