12

C -0.35026118 -1.1059324 0.98127234
C -0.25847158 -0.62895036 -0.46629915
N -0.2650208 0.82019395 -0.5820186
C 0.87758833 1.5518222 -0.49758768
O 1.9961368 1.0856608 -0.4156555
H -0.3455869 -2.1993084 1.0256869
H -1.270636 -0.74740154 1.4556339
H 0.50483996 -0.7300432 1.5516651
H -1.0942954 -1.0171353 -1.0576138
H 0.6708914 -0.9812459 -0.9233667
H -1.1454372 1.3119267 -0.5392771
H 0.68025243 2.6404135 -0.5324395
