10

O 0.0038943426 0.16481264 2.2826972
C 0.66548055 0.10544464 -2.9708722
O -0.6299978 -0.32408518 0.19641128
C 0.4864487 0.18453224 -0.3659469
C -0.90256304 -0.34699437 1.4337058
C 0.55916286 0.12773901 -1.7608365
H 1.2325206 0.605875 0.2907065
H -1.8319623 -0.79706234 1.7471397
H 0.76613164 0.08995659 -4.0333433
H -0.34911528 0.18978183 3.1803386
