11

C -0.45266265 1.58563 -0.17900123
C 0.8985756 -0.4074524 -0.9064059
C 0.0040003243 0.2303932 0.13146244
O 0.36331394 0.03905614 1.4897568
C -0.8290979 -0.57501596 1.0358325
N -0.8110606 2.647691 -0.45695397
H -1.7505325 -0.15920413 1.4378034
H 1.17672 -1.4126443 -0.5802276
H 1.8089167 0.18334207 -1.0401236
H -0.7911365 -1.6589195 0.9367891
H 0.38296354 -0.47287634 -1.868932
