11

C 1.2984539 0.6401416 0.5743694
C 0.102636226 -0.2904974 0.41331607
C -0.7483101 0.04822503 -0.7850142
O -0.5461471 0.94438684 -1.5604599
C -1.9308379 -0.83581424 -0.97712106
N -2.844184 -1.5264392 -1.1168419
H 1.9469587 0.603349 -0.305341
H 1.8834637 0.34522864 1.4498285
H 0.97583616 1.6762892 0.70502263
H -0.55169713 -0.26667935 1.295081
H 0.41382748 -1.3381903 0.30715996
