11

C 1.25128775 0.46489997 -0.11477883
C -0.20461463 0.06138704 -0.15730198
C -0.68105306 -0.43981027 -1.44703189
O -1.12371720 0.91301150 0.50652477
C -0.92131588 -0.37964066 1.04787670
N -1.02579056 -0.84649011 -2.47145755
H 1.44506367 1.26931771 -0.82962317
H 1.50289792 0.81798347 0.88831225
H 1.89220281 -0.38499039 -0.36678446
H -1.76480318 -1.06076063 0.95772919
H -0.37015770 -0.41490781 1.98653448
