13

N -1.25020740 -1.20842304 -0.20633129
C 0.67839034 0.24609290 -0.01822622
C -0.61564881 -0.23011830 0.66421028
N 0.35348261 0.77514529 -1.32261839
C 1.32320726 1.29972074 0.78437780
N 1.85294487 2.10316182 1.42455498
H -0.25762407 0.11204255 -1.78108528
H -0.78153195 -2.10638283 -0.11873348
H 1.18485287 0.93545431 -1.87746117
H 1.38651709 -0.60248089 -0.03587235
H -1.27945057 0.63457114 0.76124713
H -2.21698542 -1.34981443 0.05677523
H -0.37794701 -0.60896921 1.66916224
