10

O 0.61145455 -0.017820941 -2.192986
C -0.020449681 -0.3943427 1.8050687
O -0.49368274 0.44788635 -0.31572002
C -0.36818057 0.64055824 -1.5567526
C -0.25649637 -0.47046587 2.9920144
C 0.2911236 -0.34568554 0.44266877
H -1.0642235 1.2973958 -2.0551183
H 1.097212 -0.8713035 -0.040671624
H 0.6589649 0.2506348 -3.1166408
H -0.4557222 -0.5368568 4.0381374
