10

N -0.94719683 -0.67836944 1.09143198
C -0.17222900 -0.00187446 0.04185722
C -0.78430806 0.84508532 -0.82723717
O 0.36565749 1.20753750 -1.57608724
C 1.43370690 0.56480016 -1.08383882
N 1.19040005 -0.20765014 -0.07677619
H -0.65112864 -0.42403285 2.03638610
H -0.91817959 -1.69777949 1.01235378
H -1.90720513 -0.34790426 0.93899121
H 2.39048274 0.74018750 -1.55708093
