10

N 3.391577 0.45343098 -0.5062078
C 0.8006107 0.20013642 -0.31412596
C -2.0869145 -0.10329951 0.67134035
N 0.004388734 0.79712063 -1.1075866
C -0.8797857 -0.6022021 0.82351243
C 2.249832 0.316857 -0.39907256
N 0.38701528 -0.63514584 0.7304453
H -1.4761007 -1.1460224 1.6814964
H -2.8953595 -0.65628636 0.19772948
H 0.50473624 1.3754112 -1.777531
