10

N 2.511127 0.45946962 2.2446156
C -1.996423 -1.1876726 -0.6943748
C 1.7433274 0.56123793 1.385075
N 1.1371875 1.138653 -0.8828694
C -1.1980597 -0.37313747 -0.058983285
C 0.82313365 0.70041203 0.2589572
N -0.50338084 0.38410515 0.61158955
H 2.1253738 1.3729974 -0.9351487
H -2.6000948 -0.8232867 -1.5179384
H -2.0421915 -2.2327783 -0.41092294
