10

O -1.1763755 -0.68846315 -1.3136554
C -0.45819077 -0.44474813 -0.39109007
C 0.32800752 0.8310839 -0.23495124
O 0.23047294 1.605478 -1.3950496
C 0.37445995 -1.1025497 1.673755
O -0.36282197 -1.4261184 0.62929165
H -0.04631142 1.3541895 0.6595357
H 0.26741457 -2.0163198 2.3006935
H -0.5360311 1.2962257 -1.8974593
H 1.3793757 0.5912218 -0.03107055
