11

N 0.11429122 0.95877861 0.12690933
C 1.11449101 -0.03345263 0.40052138
C -1.07430914 0.81311469 0.35762643
C 1.53349266 -0.79363716 -0.83059374
C -2.36200778 0.72871567 0.56517702
O 1.59200209 -0.14648887 1.49322252
H -3.01934854 0.40668759 -0.23568681
H -2.77442109 0.98954001 1.53165740
H 1.86271427 -0.09112834 -1.60142488
H 0.67600609 -1.34648792 -1.23063373
H 2.33708924 -1.48564239 -0.57677473
