10

O 1.0470616 -1.5819921 1.352349
C 0.56898737 -0.77627087 0.58402985
C 0.5943365 -0.5511412 -0.8384954
N -0.3885192 0.72578806 -0.6361683
C -0.34692872 0.4489412 0.8186314
H 0.43145737 -1.2163702 -1.676931
H -1.2665588 0.7319888 -1.1379416
H 0.019020371 1.2865642 1.4182618
H 0.67636067 0.7949901 -1.0510834
H -1.3352171 0.13750236 1.1673476
