10

O -1.2258542 -1.9405756 0.747832
C -0.5237185 -0.98404795 0.4702221
C -0.6429464 0.046559278 -0.70683855
N 0.5923401 0.7201503 -0.13903847
C 0.6112143 -0.3123085 0.9276657
H -0.46030083 -0.32657304 -1.7155911
H 0.4259692 1.6842508 0.15876645
H 1.3873796 0.72604996 -0.7829778
H -1.5030951 0.71868944 -0.6855454
H 1.3390119 -0.33219483 1.7255051
