12

N -0.26889557 0.77829397 1.0146815
C -0.5220072 -0.4525043 0.5468566
N -1.447767 -1.2779218 1.1489481
C 0.80386233 0.26947525 -0.93439895
O 1.5721582 0.30474746 -2.0335112
C 0.615024 1.3213723 -0.043087166
N 0.11180249 -0.81657606 -0.58117205
H 1.4772502 -0.55332756 -2.465794
H -1.3355182 -2.2503521 0.91116077
H -0.6416315 1.5807024 0.15685226
H -1.5791681 -1.1043868 2.133335
H 1.2148905 2.2004774 0.14612919
