12

N -1.29056641 -0.01145746 -0.39169970
C -0.69621668 1.24769954 0.01363430
N 0.90726276 -0.41416595 0.26615250
C 0.70133292 0.84129579 0.39848400
O 1.59599645 1.72121081 0.83197650
C -0.35147728 -0.87402481 -0.21423664
N -0.47457673 -2.22165342 -0.42112781
H -1.22617730 1.69636655 0.86273731
H -1.27403535 -2.49549810 -0.96791701
H 2.41171544 1.23563177 1.03188781
H 0.38717577 -2.71059782 -0.61107086
H -0.69043401 1.98519328 -0.79882028
