12

N -0.36565948 -0.550924 -1.9473042
C 0.038575392 -0.46210587 -0.6257607
N 1.2003006 -0.9097359 -0.10597988
C 0.20680533 1.0242603 1.2246008
C 0.98069024 0.55950564 0.11717418
C -0.75124913 0.068633996 1.4501163
N -0.7433451 -0.90213877 0.5230936
H -1.3626562 -0.05455123 2.34028
H -0.017511073 -1.3904363 -2.3902204
H -1.3681409 -0.46237212 -2.0552158
H 0.38915595 1.9358711 1.7750808
H 1.7930343 1.1439933 -0.3058648
