12

N -1.5242914 -1.0979803 -1.3424349
C -0.6195398 -0.452701 -0.5508271
N -0.6907542 -0.69625515 0.7668919
C 0.22105335 -0.089484476 1.5162271
C 1.1953274 0.75605625 0.9953616
C 1.1555058 0.9357199 -0.38189864
N 0.26290578 0.3468258 -1.1704073
H -1.6468016 -0.74586475 -2.2778776
H -2.3237913 -1.503144 -0.8822925
H 0.16580915 -0.2855012 2.5851245
H 1.9325223 1.2430837 1.621138
H 1.872054 1.5892453 -0.87900496
