10

O -0.24025373 -0.17313047 2.027403
C -0.105401404 -0.03523452 0.6895113
C 0.7035517 -0.6162499 -0.26180735
C 0.2940588 0.008921439 -1.465226
N -0.67256576 0.889818 -1.2754098
N -0.9024793 0.8468766 0.05494669
H 0.39093423 -0.8322542 2.3384037
H 1.4636256 -1.3684119 -0.11269964
H 0.6759329 -0.15673526 -2.4631104
H -1.6074032 1.4364002 0.4679886
