10

O -0.5549456 -0.11899262 -1.9240952
C -0.34197885 -0.020018889 -0.57775575
C 0.4259429 0.64202046 1.3433641
C -0.33358723 1.173788 0.24874285
N 0.5470689 -0.9758296 -0.022365337
N 0.92943954 -0.58479244 1.1713351
H -1.3185939 -0.12812755 0.049208235
H 0.7164078 -1.9220111 -0.327188
H 0.6592681 1.1524439 2.2700565
H -0.7290218 0.78151995 -2.2313027
