13

C 0.00207476 -1.28809309 -1.26550423
C -0.41062361 -0.15561820 -0.38073243
O -1.68295404 0.28553629 -0.63723076
C 0.32473940 0.42083399 0.56931841
O 1.58927300 0.06173656 0.95031984
N -0.20372249 1.52564521 1.28128724
H 1.08303233 -1.45906476 -1.24981318
H -0.50093871 -2.21774216 -0.97496052
H 1.78348540 -0.82213415 0.61063408
H -0.28256646 -1.06791686 -2.29943328
H -1.83541374 1.02871163 -0.03657897
H -0.23568964 1.33408557 2.27976882
H 0.36930390 2.35401969 1.15292497
