13

C 0.3805387 0.4528286 -0.33891615
C -0.56841314 -0.61475277 -0.56602323
O -0.22564186 1.7253202 -0.21314831
C 1.40237 0.15074167 0.75342697
O -0.008255649 -1.5497671 -1.2517712
N -1.8633718 -0.6483137 -0.26024967
H -0.18455625 2.0203907 0.70759195
H -2.4825375 -1.2766621 -0.75154746
H 2.268485 0.8095212 0.64181733
H 0.7887329 -0.6523889 -1.3860056
H 1.7573543 -0.8828992 0.6953799
H -2.2522852 0.15706483 0.20396395
H 0.98758066 0.3089162 1.7654814
