10

O -1.6043351 -1.1750183 -0.6991562
C -0.40957662 -0.70570546 -0.35706282
C 0.8485007 -0.69895834 -0.8192836
N 1.2465677 1.4143066 0.3184719
N -0.07831706 -0.06178382 0.89733076
C 0.04956746 1.3552816 0.7667608
N 1.3235664 -0.039146595 0.38499048
H 1.4459269 -1.0508323 -1.6435822
H -2.1726506 -1.1650383 0.08424928
H -0.6492501 2.126895 1.0672817
