10

O 1.4469295 -1.2723827 0.87095606
C 0.5468878 -0.45550042 0.3201125
C 0.88444257 0.89379764 0.08400745
N 0.008587039 1.7129358 -0.45283994
N -1.2072015 1.2602491 -0.776917
C -1.4664536 -0.011898814 -0.5346337
N -0.63908005 -0.91847605 0.009650571
H 1.0260731 -2.1443062 0.95075256
H 1.8597468 1.2952039 0.3351858
H -2.4599316 -0.3596223 -0.8062745
