10

O 0.39918616 1.5724598 1.2987279
C 0.29850006 0.46465808 0.57846457
C -0.9042743 -0.25904724 -1.2550929
N 0.0028882278 0.68517566 -0.8005156
N 0.6555351 -1.2629141 -0.43618312
C 0.5938652 -0.8087483 0.9094071
N -0.6424097 -1.4555895 -0.8381432
H 1.1224031 -1.2501633 1.7393519
H -1.7526714 0.011300729 -1.8774989
H 0.22697738 2.3028677 0.68148226
