12

C 0.72382927 0.11385852 0.86430313
C -1.28462401 0.37532153 -0.29449574
N -0.45138949 0.94343338 0.66303481
N -0.56248034 -0.64744004 -0.89223429
C 0.83769148 -0.56604174 -0.50890232
O -2.41987693 0.70632783 -0.55666162
H 1.61087323 0.70579072 1.10543058
H 1.41505922 0.05805933 -1.20192613
H 0.56629466 -0.63168553 1.65350687
H -0.91480618 1.37599410 1.44855633
H -0.82593765 -0.88207195 -1.83794538
H 1.30536705 -1.55154636 -0.44266626
