12

C 1.0346134 -0.083278604 0.45448014
C -1.2608687 0.33458716 0.41966
N -0.9314323 -0.40298823 -0.70829314
N -0.06228606 0.66589797 1.0421778
C 0.4971249 -0.31882882 -0.9655707
O -2.3760045 0.63018805 0.788696
H 1.9685555 0.48515776 0.45215145
H -1.5954282 -0.37177348 -1.4678762
H 0.891569 -1.2370489 -1.407852
H 1.1985134 -1.0378735 0.96963155
H 0.7453326 0.52759683 -1.6175632
H -0.10968925 0.80836374 2.0403583
