12

C 1.0741625 0.19428864 0.78354275
C -0.31581956 0.5913778 0.34935164
N -1.0173467 1.5460347 0.80948025
N -0.9048178 -0.17008114 -0.66814667
C -0.39504278 -1.2497208 -1.3433561
O -0.9988355 -1.8433175 -2.2074382
H 1.4147943 0.8649726 1.576697
H 1.7827939 0.25819594 -0.04897195
H 1.0922029 -0.8307526 1.1699003
H -0.51487786 2.0464995 1.5375406
H -1.839413 0.123214744 -0.93033284
H 0.6221999 -1.5307121 -1.0282668
