11

O -2.2988431 -0.6223139 -0.4239876
C -1.1547008 -0.37408888 -0.1620983
C 0.11335183 -1.2132943 0.0429189
N 0.7559676 -0.048503406 0.730979
C 0.85809976 0.9796384 -0.28451878
C -0.44417453 0.8120393 0.4121895
H -0.05815145 -2.0393896 0.736893
H 0.65873456 -1.5748981 -0.83507377
H 0.961223 0.69303733 -1.3296629
H 1.4561161 1.8353653 0.017794363
H -0.84762335 1.5524081 1.0945667
