11

O 1.7744739 1.0092714 -1.1917002
C -1.2224432 -0.7214043 -0.6797314
C 0.2439015 -0.893684 -0.6003274
N -0.2732649 -0.6294531 0.76812714
C 0.23422374 0.7747711 0.79657197
C 0.9305751 0.4625029 -0.5447447
H -1.344761 -0.9680526 0.7207233
H 0.95747966 0.9304 1.6022998
H -1.4955423 0.32900017 -0.8637905
H -0.55179834 1.5329217 0.83665806
H 0.74715626 -1.8262733 -0.8440864
