9

C 0.77611226 0.11949505 -1.6539279
C 0.15034813 0.025164679 -0.3343598
C -0.35210148 -0.04157861 0.7597109
C -0.9739364 -0.15018402 2.0672126
O -0.6531873 0.51189536 3.0272675
H 0.81553626 1.1594718 -1.9872328
H 0.22066282 -0.46114033 -2.397515
H 1.8004061 -0.26260346 -1.6158642
H -1.7838404 -0.90052044 2.1347086
