9

C -1.31124961 -1.24857223 -1.31479991
C 0.39933319 0.14014754 0.03592104
C -0.44116675 -0.54181852 -0.62914396
C 1.27427996 0.84621182 0.72404231
O 1.03000042 1.53460507 1.86334696
H 0.10183381 1.42678073 2.10707269
H -1.02840619 -1.74713432 -2.23598748
H 2.31108300 0.94029354 0.41961633
H -2.33570784 -1.35051361 -0.97006808
