11

O -1.0281117 0.0034356737 1.2431538
C 1.3794078 0.39498517 0.12553199
N -1.1111898 -0.5362411 -0.87692934
C 2.4527292 -0.110588275 0.3280145
C -1.4799162 -0.7476888 0.34548616
C 0.13941242 1.0524079 -0.12747006
H 0.00811274 1.3760248 -1.1518853
H -0.14189838 1.8116521 0.59266216
H 3.4029686 -0.5586551 0.5199588
H -1.4492838 -1.1329117 -1.6240219
H -2.172231 -1.5524207 0.6254994
