9

O -0.61949039 -0.10574610 -1.45268164
C 0.48528884 -0.82229449 -0.84128730
N 0.56256008 -0.32185537 0.40605611
C -1.19811161 0.77411703 -0.67283444
C -0.43737408 0.68824940 0.63752628
O 1.10133626 -1.64985328 -1.43554773
H -1.13854758 0.42281603 1.43721809
H -0.01360190 1.67143148 0.87209915
H 1.25794032 -0.65686461 1.04945136
