9

O -1.4888632 0.3265235 -0.42650127
C 0.118466556 -0.6672227 0.78243375
N 0.7096815 0.19646126 -0.20664325
C -0.22615807 0.81283325 -0.9526765
C -1.3765552 -0.521985 0.5657404
O -0.17992057 1.5888956 -1.8543986
H 0.39433363 -1.7201722 0.6528157
H 0.36221248 -0.3781086 1.8111491
H 1.6868027 0.36277503 -0.37191945
