11

C -0.879122 -0.7998126 -1.1914911
C -0.12734848 -0.063484736 -0.14112946
C -0.26399088 1.1307745 0.47177663
N 0.7580288 1.3022155 1.400043
C 1.4463544 0.22045146 1.2994838
O 0.98295695 -0.6624882 0.39125094
H -1.256257 -1.7543106 -0.8142547
H -1.7313185 -0.19702263 -1.5188073
H -0.24713016 -1.0045376 -2.061186
H -1.0190959 1.8900403 0.32015768
H 2.336923 -0.061825316 1.8441564
