11

C -0.41817100 -2.08793296 -0.27409469
C 0.27082525 0.05141621 0.04225922
C -1.05796495 0.10812503 -0.12830286
N -1.44720997 -1.22038543 -0.32140274
C 1.33106555 1.06112665 0.28731709
O 0.64381695 -1.27072857 -0.04657156
H -2.39220921 -1.53286357 -0.47909198
H -1.75104177 0.93329066 -0.13309036
H 2.08363458 1.03260189 -0.50698736
H 0.89649211 2.06184068 0.32421830
H 1.84076270 0.86350950 1.23574682
