10

O 0.90721727 2.18863805 0.05898679
C -0.44993202 -0.81837582 0.71828184
N -0.03971077 0.32109385 1.13763590
C 0.40851366 0.95892224 -0.05675478
C -0.27733458 -0.94387843 -0.76885735
N 0.31091266 0.32405808 -1.15768281
H -0.86337433 -1.56768881 1.38682406
H 0.85921248 2.42444780 0.99578931
H -1.23443622 -1.10714248 -1.27739871
H 0.37893187 -1.78007454 -1.03682379
