10

O 0.5994627 1.9242512 -1.2468203
C -0.07353305 -0.37613678 1.1141008
N -0.14652297 -0.2562015 -1.2061516
C -0.40721032 -1.1748092 -0.11386727
C 0.24461 0.80484277 -0.6180861
N 0.31391793 0.806151 0.806517
H 0.21386404 -2.074009 -0.20001806
H 0.84718037 2.5634737 -0.56451523
H -0.13851164 -0.71549433 2.143648
H -1.4532571 -1.5020679 -0.114807054
