10

O 1.8155924 -1.3672416 -0.34587094
C -0.4426767 1.1860965 -0.14616571
N -0.23267928 -0.95274806 0.6547336
C -1.1283054 0.21160851 0.5758747
C 0.7954114 -0.5327766 -0.085981406
N 0.747134 0.71379924 -0.5546055
H -1.2621235 -0.86138207 -0.085124396
H -0.7676815 2.191155 -0.38257483
H 2.440498 -0.8708641 -0.889814
H -1.9651697 0.2823535 1.2595285
