10

C 0.02305050 2.04887432 1.54820713
C 0.03406216 1.09304747 0.82075415
C 0.04815197 -0.03959514 -0.03941357
C 1.06370862 -0.70770985 -0.68532802
N -1.06135514 -0.73380014 -0.40813184
N -0.75991203 -1.74726887 -1.21425725
N 0.52731001 -1.73845034 -1.38698897
H 0.02246847 2.89907554 2.19389958
H -2.02137908 -0.56859364 -0.14718026
H 2.12389467 -0.50557904 -0.68156097
