10

C 0.38627335 2.0530689 1.5006517
C 0.18238528 1.0917387 0.8063167
C -0.05931332 -0.043762494 -0.01958009
C -1.2058582 -0.72165126 -0.37428394
N -0.8679065 -1.7423196 -1.2022573
N 0.41670159 -1.7384561 -1.3811214
N 0.9143124 -0.7239896 -0.67718285
H 0.55535704 2.909129 2.1189642
H -2.2290294 -0.5336668 -0.0875171
H 1.9070779 -0.55009043 -0.68398994
