11

C -0.65860959 0.35480480 -0.81841595
O -0.70169249 1.00718314 0.44192060
C 0.38677595 -0.75234960 -0.62543286
C 0.27110527 0.39595475 1.26881411
O 1.18765350 -0.25067122 0.42909848
H -0.08856363 -1.70070529 -0.33221244
H -0.35424183 1.07458746 -1.58641759
H -1.64913043 -0.04169207 -1.07174362
H 1.02649940 -0.91802613 -1.49437833
H -0.21677140 -0.32907313 1.94159581
H 0.79697516 1.15998698 1.84717153
