10

O 0.34022787 -0.508918 -2.2373488
C 0.15129353 -0.3249731 -1.0706276
C -0.9080511 0.4822995 -0.26630694
C 0.006463009 0.2685719 0.9409742
O 0.07361181 -1.128524 1.1367384
C 0.97416466 -0.5530368 0.18888134
H -1.9095143 0.056179956 -0.17278372
H -0.96357983 1.5109137 -0.6321485
H 0.19958495 0.91999346 1.7839764
H 2.0357993 -0.72250676 0.32864505
