11

N -0.34340605 -0.6207594 -1.4041597
C 0.13319008 0.3724879 0.5506249
C 0.63245016 0.07241568 -0.7650909
N -1.451322 -0.80392003 -0.6695847
N 0.59569883 1.1459142 1.6266272
C -1.2131228 -0.20849201 0.4730498
H 1.5053047 1.5258653 1.3638864
H -1.9423958 -0.21059412 1.2704618
H -0.2797888 -1.0768679 -2.2963853
H 0.7589923 -0.44171757 1.0548509
H 1.6043992 0.24566789 -1.2042807
