11

N -1.2254293 0.1896253 -0.78812206
C 0.6118085 0.17857665 0.45921668
C -0.45566002 1.0059097 -0.06402421
N -0.9426444 -1.060799 -0.8972134
N 1.6211181 0.42085898 1.2046652
C 0.27691424 -1.1940113 -0.10059081
H 1.080501 -1.5777967 -0.73851955
H -2.0556054 0.504948 -1.2785655
H 0.11519565 -1.9272461 0.6982591
H 1.6518363 1.4055871 1.4631408
H -0.67803454 2.0543473 0.04175371
