15

N -1.5605924 1.4272425 0.80395675
C -0.5219337 0.9632555 0.07455141
O -0.4474792 1.3720798 -1.1832867
N 0.6099203 0.5792161 0.73488456
C 1.395238 -0.40645432 -0.006358091
C 0.39048183 -1.4934143 -0.4674603
O -0.77318144 -0.87155 -0.88530976
H -1.7819266 0.97093946 1.6726298
H 1.846045 0.10058139 -0.86545914
H 0.19368614 -2.1772149 0.38162136
H -0.5140888 0.4031242 -1.5735348
H 0.45121226 0.32196197 1.6971165
H 2.1966548 -0.7837071 0.63563883
H -2.3547275 1.6895391 0.23751509
H 0.8706914 -2.0955997 -1.2565058
