11

N -0.3580662 0.49554917 1.9624748
C -0.15809228 0.18252492 0.6132677
C 0.52328026 -0.869435 0.054315414
N 0.34578112 -0.713707 -1.3123543
C -0.41927245 0.38658702 -1.4946938
N -0.7370123 0.9576944 -0.35660782
H -0.744996 1.4262724 2.0427604
H 0.47502154 0.41122612 2.5277734
H 1.0797939 -1.6936834 0.47110528
H 0.71019953 -1.3149463 -2.0316014
H -0.7166372 0.7319176 -2.4764395
