11

N 0.89116031 -1.26230043 1.61601272
C 0.39877501 -0.58558300 0.62898018
C 0.30190187 -0.68135660 -0.78748872
N -0.37919262 0.43997624 -1.23785555
C -0.72170835 1.22317440 -0.23307787
N -0.26987643 0.63313241 0.89211398
H -1.25749786 2.15673211 -0.30180091
H -0.36932893 0.98416142 1.82876014
H 1.33186119 -2.10740904 1.26679881
H 0.66616146 -1.43329373 -1.46787799
H -0.59225575 0.63276614 -2.20456463
