12

N -0.6966189 -0.74305445 0.16249403
C -0.5852093 -0.19827434 -0.9886673
N 1.0449041 0.7960796 0.30591726
C 0.51788235 0.8200831 -1.0460767
O -1.344563 -0.4755194 -2.0422144
C 0.33409616 -0.09607187 0.90051675
N 0.5176647 -0.503115 2.1930544
H 0.13305973 1.8094914 -1.3212473
H 1.0684339 0.119910106 2.7596788
H 1.2775425 0.5420412 -1.7864859
H -1.9765874 -1.1605015 -1.7732677
H -0.2906048 -0.91106886 2.636298
