11

N -1.1185678 -2.3105767 -0.024740376
C -0.99225676 -0.46175942 -0.43301594
C 1.2379991 1.3562703 -0.3394324
O -0.7335971 0.37629974 0.60750586
C 0.0077467365 -1.9512655 -0.18391566
C 0.6314914 0.69089407 0.8277856
N 1.6857483 1.8683999 -1.2725352
H -2.0689409 -0.5129246 -0.55301607
H 1.1951232 -0.22374783 1.0511794
H 0.6492995 1.3644575 1.6871567
H -0.49404576 -0.19604787 -1.3669719
