10

N -0.87383048 -0.55680901 -0.37044546
C 0.15991953 -0.08505545 0.59035515
C 0.34489380 1.40679223 0.35298090
O -0.56371989 1.67313872 -0.56685009
C -1.24455253 0.48041302 -0.96184636
N 1.39179847 -0.81971202 0.60161954
H -0.30165987 -0.16248396 1.58936499
H 1.21573896 -1.79904864 0.79250885
H -1.98994863 0.61454451 -1.73429085
H 1.86136054 -0.75177948 -0.29339642
