10

C -0.08589266 -0.21687713 0.28591275
C -0.1983903 1.1922213 0.60076976
C 0.34716797 -0.48856464 -1.0732988
C -0.3040375 2.3520536 0.89727825
N 0.46309635 -1.7329262 -1.4432327
N 0.5636706 -2.8138208 -1.754877
N -0.33802092 -1.1617006 1.112841
H -0.62597966 -0.7797838 2.0136049
H -0.40064865 3.3819718 1.168503
H 0.57903486 0.26742616 -1.8075011
