11

N 2.18063555 0.50739154 -0.22378912
C -1.30752115 -0.21490638 -0.70196839
C -0.05524883 0.12058698 -1.24823355
C 0.84305975 0.20032662 -0.17863390
C -1.15757423 -0.33488496 0.67344091
N 0.13433895 -0.08398255 0.98796507
O 2.73530317 0.53875575 0.87854836
H -2.23205468 -0.35840059 -1.23975051
H 0.18677712 0.28664771 -2.28741298
H -1.88493303 -0.57894521 1.43365328
H 0.55721728 -0.08258888 1.90618002
