9

O -0.24075846 -1.2162682 1.7547069
C -0.19040665 0.12712458 1.3357496
C 0.115340516 0.26615536 -0.09983302
C 0.33905205 0.3345368 -1.281238
C 0.59939146 0.41594076 -2.6405983
N 0.81516 0.48161134 -3.7803104
H -0.91584814 -1.6777304 1.2416772
H 0.6015164 0.6015959 1.9208951
H -1.1234472 0.66703403 1.5489509
