9

O 1.1032542 1.7197435 0.365392
C -0.17000523 -2.7160788 -1.1885567
C -0.20497091 -1.3380741 -0.6161358
C -0.19994657 1.2139715 0.1943751
C -0.2298206 -0.18136576 -0.25897557
N -0.39311466 -2.9784818 -0.036967978
H 1.5734787 1.1451821 0.98082405
H -0.6799069 1.846933 -0.5563535
H -0.79896814 1.2881703 1.1163981
