9

O -0.23139704 -1.20910566 1.75185863
C 0.33596848 0.33943403 -1.28737930
C 0.11222741 0.27596115 -0.11101642
C -0.19592295 0.13261426 1.32141727
C 0.81149085 0.47411086 -3.74638665
N 0.58699221 0.41201833 -2.58766594
H -1.14089968 0.65385853 1.53600029
H 0.58632600 0.61576827 1.91462233
H -0.86478530 -1.69465960 1.20854977
