10

N 0.17071629 0.7119733 0.6595598
C -1.1019707 -0.112086006 0.9710417
C -0.68679655 0.03211742 -0.26204094
N -0.6930729 -0.05410598 -1.5956689
C 1.4361057 0.14284869 0.81653976
O 2.1136928 -0.25241736 -0.103099376
H 0.22986227 -0.074932724 -2.0094602
H -1.3821623 -0.65615004 -2.0190494
H 1.7960289 0.17954932 1.8608507
H -1.8824035 0.083203435 1.681327
