10

O -1.57325099 0.45348686 -0.71882248
C -0.10073721 0.88597706 2.40015699
C -0.32001808 0.58396936 1.25705209
O 0.24929301 -0.85546323 -2.13271682
C -0.54530822 0.19887717 -0.12906572
C 0.57994073 -0.54808765 -0.81733607
H 0.07945570 1.16148028 3.41701443
H 1.48438292 0.07788364 -0.76653020
H -0.64268463 -0.50180722 -2.27917010
H 0.78892683 -1.45631667 -0.23058218
