10

O -1.9772235 -0.039094914 1.2411588
C 2.0287955 0.3745407 -1.3900592
C -0.20138717 -0.30044964 -0.1691502
O -0.8647023 -1.3706808 -0.44308713
C 1.017886 0.042683918 -0.82543594
C -0.8431306 0.45705652 0.90045404
H -0.5549042 1.5113186 1.0257525
H 2.9260263 0.6616317 -1.8933142
H 0.15744078 -0.14423606 1.3679321
H -1.6888009 -1.19277 0.18574943
