9

N -0.3183886 0.2701041 -0.37042916
C 0.37298748 -0.6753238 0.3280642
N -0.4374398 -1.6912651 0.72108656
C 0.28893656 1.4424862 -0.7973389
O -0.27576917 2.2948225 -1.4348177
H -1.2911257 0.12595382 -0.64232355
H 1.3447999 1.4943142 -0.48022854
H 0.15026845 -0.84572893 1.5493639
H 0.16573088 -2.4153628 1.1266233
