11

O -0.73235119 -2.29856702 -0.07833693
C 0.71454490 -0.44931220 -0.75943779
N 0.77690631 0.88849643 -0.19021942
C -0.42006784 -1.13304901 0.02847888
C -0.28667952 1.04741387 0.65771514
C -0.99091511 -0.08934947 0.87470322
H 0.46084018 -0.42783283 -1.82576823
H -0.45644441 2.02096692 1.10445179
H 1.65260451 -0.99508942 -0.62946928
H 1.09462814 1.66916694 -0.74368490
H -1.81306647 -0.23284439 1.56156701
