11

O -1.9057424 -0.77320755 -1.2634007
C 0.2108229 0.55777013 1.1208463
N 1.160114 0.029276129 0.28717786
C -1.0624747 0.32233185 0.7226698
C 0.4944329 -0.4798954 -0.9024622
C -1.0048832 -0.3646266 -0.56420326
H -1.97286 0.56465846 1.2525584
H 0.76063484 -1.5197526 -1.1087483
H 0.5338988 1.0703198 2.020354
H 2.0664682 0.4663996 0.22265828
H 0.719588 0.12672625 -1.78745
