11

O -1.96096537 0.01209330 2.22456880
C 0.37544193 0.38641961 -1.36876083
N -0.49356539 -0.74421597 -1.08492069
C 0.57494435 -0.44880877 -0.15404209
C -0.89392556 0.05832472 1.75629274
C 0.29481053 0.11839546 1.20169803
H -0.00891033 1.39120173 -1.21087442
H 1.03143111 0.27034832 -2.22708707
H -1.39455357 -0.42671708 -0.74436899
H 1.37887844 -1.18102838 -0.17153167
H 1.09641394 0.56398727 1.77902592
