10

N -0.19633786 -1.0067066 -0.82058614
C -0.907687 -0.4811684 1.2056806
N 1.1806427 0.8308775 -1.2752978
O -0.99515265 -1.4446584 0.20260482
C 0.29152724 0.15122895 -0.4798059
C -0.18815862 0.6764545 0.8107637
H -1.7072408 -0.54842156 1.9380171
H 1.1840123 0.5823718 -2.2542968
H 1.2311398 1.8182539 -1.0845792
H 0.107255034 -0.5782316 1.7574993
