10

N -1.3051153 1.5055598 -0.0020142787
C 0.98503923 -1.1966392 -0.33519626
N 0.482868 0.45044643 1.0885912
O 1.3472494 -0.5469684 0.9205377
C -0.15631123 -0.5189558 -0.92713684
C -0.35801592 0.49977505 0.065326184
H -2.0812173 1.2939267 -0.6078275
H 0.78912556 -2.2501152 -0.10473088
H -1.5728368 1.9111922 0.88523746
H 1.8692145 -1.1482215 -0.98278695
