10

N 0.71441654 1.82469378 0.36075169
C -0.37088296 0.02902029 -1.00743969
N 0.43436337 -0.37000421 1.13820895
O -0.01094678 -1.55669998 0.73362827
C -0.53599225 -1.36030031 -0.61392157
C 0.26076797 0.53042434 0.18129545
H 0.01989606 -2.03958714 -1.27198044
H -1.58347056 -1.68257530 -0.59855463
H 0.79820742 2.12693159 1.32255181
H 0.27364104 2.49809659 -0.24454010
