10

O 0.60755327 -1.77061338 -0.48158589
C -1.02659845 0.01117476 0.16479667
C 0.27672684 -0.40947626 -0.48104858
C 1.32551074 0.46572921 0.19030335
N 0.54871074 1.25655896 0.88181723
N -0.87207980 1.03062205 0.91640183
H 0.05946386 -2.22360226 -1.13127838
H 0.23978867 0.01117583 -1.50877285
H 0.85744232 2.03134161 1.45196869
H -2.01651825 -0.40291057 -0.00260164
