10

O -1.1590433 -1.054925 0.25108814
C -0.97028387 0.5211436 -0.13363715
C 0.050302695 -0.28605446 -0.82305646
C 1.3014361 -0.0997157 -0.1746535
N -0.14709194 1.0151718 0.9151509
N 1.1441331 0.7320243 0.8381856
H 2.268268 -0.525804 -0.40844724
H -1.9665059 -1.2527643 -0.23536089
H -0.4100011 1.7757549 1.5212463
H -0.11121383 -0.8248307 -1.7505158
