9

N 0.220966 0.25305003 1.1167445
C -0.5321941 0.7523357 -1.2969841
C -0.82989675 -0.14585537 -0.2177991
C 0.3098933 -0.9438791 0.2744753
N -0.38011578 1.4918814 -2.1786585
H 0.81775343 1.0108014 0.7923407
H 0.11009685 -1.8682218 0.8111516
H -0.9348391 0.41219783 1.0253478
H 1.218336 -0.96230996 -0.32661825
