9

N 1.75842894 -0.04358256 -2.14118006
C -0.83995024 -0.49835565 0.18006737
C 0.84761047 0.20675621 -1.46259253
C -0.27688840 0.57725191 -0.66428529
N 0.09419257 0.45158971 0.82359282
H 0.99152832 0.06759387 1.10390377
H -0.25908265 1.16735112 1.44545982
H -0.44675813 -1.51634832 0.18970809
H -1.86908107 -0.41225593 0.52532592
