11

O -1.3469864 2.464974 0.72313184
C 1.2234588 -0.4320888 -1.0683024
C -0.31313482 0.381526 0.21953072
C -1.2691758 1.2829118 0.9290556
N 0.52897036 0.773014 -0.6593468
C -0.20387211 -1.0773389 0.4262053
N 0.70286345 -1.5707037 -0.32917356
H 1.0877316 -0.5902299 -2.144412
H -1.917134 0.7747115 1.67374
H -0.790772 -1.6820959 1.114675
H 2.2980509 -0.32467985 -0.88510346
