11

O -2.3241522 -1.5465946 -0.14938281
C 0.8570152 0.9027718 1.1535338
C -0.39138937 -0.17493021 -0.23076269
C -1.4470623 -1.0357385 -0.79645866
N 1.5219508 0.9962879 -0.01584542
C 0.7445221 0.3370989 -0.8726313
N -0.38022724 0.21408291 1.0623759
H 1.0707595 1.520688 2.0215366
H 0.6962829 -0.25405487 1.6383328
H -1.3666167 -1.1795468 -1.8944073
H 1.0189172 0.21993533 -1.9162908
