11

O 0.46380982 -1.090459 -2.3386095
C 0.80907655 -0.14621373 -1.6614149
C 0.26718205 0.10748799 -0.33728564
C 0.47230312 1.072973 0.6240671
N -0.31140745 0.83676976 1.7143188
C -0.9879015 -0.25811166 1.427279
N -0.67641747 -0.73751783 0.2042147
H 1.5643837 0.58194155 -2.0166407
H 1.143421 1.9193622 0.581921
H -1.7106644 -0.7346855 2.07475
H -1.0337852 -1.5515472 -0.27260026
