10

C -1.0830948 0.24361417 -0.2526596
C -0.31757107 -0.5987704 -1.0493417
N 0.9514617 -0.8904976 -0.7643036
C 1.4444515 -0.32423913 0.33650944
N 0.8105564 0.49380943 1.1729954
C -0.45580348 0.77322865 0.8685215
H -2.1140072 0.47528318 -0.49197653
H -0.7334811 -1.0569291 -1.9455256
H 2.480276 -0.5569279 0.5781749
H -0.9827876 1.4414288 1.547606
