10

C 0.81837314 0.80627733 0.13237524
C 0.94264 -0.5545768 -0.030777562
N -0.4264973 1.3036383 0.15501697
C -1.5763837 0.55213934 0.012969492
N -1.4659324 -0.78530335 -0.16397935
C -0.23954476 -1.2944502 -0.16916026
H 1.9101776 -1.0428238 -0.051340822
H -0.17561816 -2.3766577 -0.29568604
H 1.6526518 1.4917132 0.24852857
H -1.4398664 1.9000435 0.16205378
