10

C 0.25697517 0.8536305 -0.5787211
C 0.37154204 -0.47001275 -0.8596501
N -0.6809676 0.2778392 1.5708978
C -0.59032637 -1.0899918 1.3267618
N -0.04361856 -1.3558745 0.08507235
C -0.28763163 1.1639713 0.6867852
H 0.04227271 -2.3426871 -0.12819189
H 0.5627389 1.6187314 -1.2827305
H -0.40157825 2.213775 0.967134
H 0.7705936 -0.8693808 -1.7873578
