12

N -0.09723175 -1.65635081 -0.16869593
C -0.15735251 -0.20529709 -0.01106174
C 1.00123191 0.65962523 -0.32494636
N 0.60605737 1.74061857 -0.89898685
C -0.80351520 1.59397635 -0.94246740
N -1.30547350 0.52235574 -0.45034124
C -0.20942778 -1.10975134 1.17070942
H 0.84979676 -1.96299855 -0.36445544
H 0.65387164 -1.13050226 1.83466304
H 2.04144701 0.43430344 -0.11481725
H -1.40606804 2.38530175 -1.37454985
H -1.17333552 -1.27128142 1.64494966
