10

O -0.7248773 0.8961541 -1.9431444
C -0.20114134 0.26427355 -0.6327187
C 0.07867962 -0.53519046 -1.6817341
N 0.90431726 -0.88687885 1.4896231
C 0.098293126 0.09310013 1.6023412
N -0.45962012 0.7457135 0.5002395
H -0.23627579 0.52312845 2.549473
H 1.1672791 -1.217785 2.4140441
H 1.0189909 -0.5057604 -2.2233515
H -1.6456454 0.6232447 -2.0747728
