10

O 1.5232805 2.0691738 1.0556751
C -0.66796184 -1.561477 -0.36640543
C 0.44960478 0.4579501 -0.36198413
N 0.33155987 -0.67222625 -0.84142566
C 0.6814374 1.6813462 0.057776164
N -1.8817474 -1.2334774 -0.27972946
H -2.4358656 -2.0351386 0.011570923
H 2.100485 1.3375813 1.3035765
H -0.25801677 -2.5614464 -0.18959175
H 0.1572241 2.5177143 -0.3894626
