10

O 0.214137 2.2109456 0.3930471
C 0.11600887 0.8844223 0.1616628
C -1.004796 0.19337378 -0.2119563
N -0.569362 -1.1189423 -0.3107911
C 0.74544424 -1.1381383 -0.00057181745
N 1.1942225 0.061700493 0.29119474
H 1.1302334 2.3758445 0.6508323
H -2.022683 0.4871269 -0.40701678
H -1.1350504 -1.9103276 -0.56679934
H 1.3318455 -2.0460057 0.00039852146
