9

O 1.4627557 1.8985296 0.54287034
C -0.5533735 -0.19900827 0.89563406
C -0.15601742 -1.033138 -0.27616876
N -0.35439765 -2.275327 -0.28872523
C 0.38891146 1.6382908 0.21317707
N -0.69757766 0.76271087 1.5472592
O 0.344685 -0.10181723 -1.0182436
H -0.028455336 -2.6637156 -1.174497
H -0.40653056 1.9734747 -0.44130626
