9

O -2.5754054 0.6748953 0.29330534
C -1.6310062 0.097326525 0.76197153
C -0.30012554 0.046982236 0.09524041
N 0.7623204 -0.54728454 0.54418826
C 1.6600143 -0.28021774 -0.45461965
N 1.1850376 0.42345542 -1.4415056
O -0.12803054 0.646545 -1.0766747
H -1.6591498 -0.44457498 1.7228578
H 2.6863449 -0.61712724 -0.44476354
