9

O 0.37369332 0.15268692 -1.7184794
C -0.32535937 1.1635154 -1.1506118
N 0.8248861 -0.79496115 -0.7936501
O 0.49511692 -1.1058435 1.4863509
C 0.3212357 -0.44204926 0.3407992
C -0.4410718 0.7798863 0.20664808
H -0.8705562 1.370608 1.0049926
H 1.0569482 -1.8752782 1.3089019
H -1.4348929 0.7514356 -0.6849513
