9

O 0.9588673 -1.1261598 -1.0512581
C -0.9761292 1.095868 1.0477185
N 1.1055943 0.9362345 -0.045045808
O 0.1433722 1.6907378 0.8171449
C -0.8817546 -0.21456851 0.31617585
C 0.4766672 -0.13953243 -0.3028491
H -0.98762673 -1.0569904 1.00948
H 1.841951 -0.8759677 -1.3638569
H -1.6809417 -0.30962119 -0.42750913
