10

O 1.69304068 -0.16548556 1.78247524
C 0.95058921 -0.03321356 0.85348297
C 1.13827156 -0.32113571 -0.66785382
C -0.44374190 0.61993182 0.67785735
O -0.43006366 -1.26075037 -0.71241189
C -0.28358283 0.19183583 -0.76801790
H -0.76174164 0.65614771 -1.62604475
H -0.20238458 -1.62153608 -1.58388283
H -0.36726657 1.70477125 0.80038208
H -1.29312009 0.22943469 1.24401316
