10

O -1.3849692 -0.49219564 -0.48187178
C 1.0198618 -0.56282014 -0.3376719
C 0.49411768 0.88082236 -0.16555563
C -0.1175425 -1.1553247 0.54256403
O 1.9851794 -1.0438911 -0.8474972
C -0.68955594 0.23765174 0.5408583
H 0.28786644 1.4786052 -1.0555944
H -1.3210874 0.69433224 1.2981995
H -1.4277828 -1.4668692 -0.0075164298
H 1.1539125 1.429689 0.5140856
