10

N -0.55611527 -0.74547464 0.32875058
C -1.2832301 0.17117359 -0.69380414
C 0.016468685 0.022069778 -0.732717
N 1.2679142 0.14543413 -1.188489
C -0.28371498 -0.270047 1.6085123
O 0.8025751 0.1273723 1.9553281
H 1.4266771 0.8174424 -1.9234775
H -2.2115016 -0.032038108 -1.1945487
H -1.1431049 -0.37487465 2.2948062
H 1.9640318 0.13894217 -0.45436066
