12

C 0.16282877 -1.5553943 -0.48286435
C -0.40695372 1.8970103 0.727229
O -1.668862 -0.1236678 1.0631032
N 0.22798286 -0.24990325 -0.20777698
C -0.7054847 0.4251119 0.56659377
N 1.2016606 -1.7760385 -1.2237242
H -0.60327274 -2.245687 -0.14366898
H 0.5952433 2.040394 1.1441164
H -1.1497477 2.3449945 1.3880141
H -0.43238717 2.3962946 -0.24683844
H 1.4504136 -2.6791308 -1.5986257
H 1.328579 -0.47398376 -0.9855574
