10

O -2.16225461 0.24062902 -1.07220478
C 0.36213781 -1.30601042 0.41404122
C 1.10520628 1.96404284 0.43295925
N 1.14122077 0.78225282 0.67413263
N -0.51666434 -1.09103494 -0.48332345
C -0.88389367 -0.10999726 -1.28258307
N 1.09362076 -0.34796380 1.13357051
H 0.58932805 -2.32035277 0.73134583
H 1.81975975 2.44913792 -0.22406637
H -2.54846049 -0.26070361 -0.32387190
