10

O 0.06912999 0.13772802 -2.2335873
C -0.61571485 1.692401 0.55826056
C -0.6325421 -0.06920026 -1.114425
N 0.9169695 -0.0019723517 1.378942
N -0.14640257 -1.0676669 -0.4087709
C 0.42563814 -1.1424444 0.7345798
N 0.11611369 0.958953 1.1886564
H 0.58811367 -2.1014955 1.2158544
H -1.5065584 2.1150942 1.0265263
H 0.78525305 -0.5213971 -2.3460364
