11

N 2.83246875 0.66610275 -0.53447622
C -1.84957736 0.04641117 0.61103207
C -0.66840636 0.09371794 -0.25313573
C 0.65464409 -0.39066184 0.21907957
C 1.78638881 0.11937554 -0.21082414
O -1.66664689 -0.90424198 -0.42999676
H -0.63646022 0.84377782 -1.04328900
H -2.65910697 0.75983554 0.46026680
H -1.75574353 -0.35135104 1.62119973
H 3.28178632 0.31907696 -1.37940142
H 0.68065322 -1.20204336 0.93954505
