10

N 0.083254814 -1.1707113 -0.41018113
C 0.8532676 -0.27094176 -1.123619
C -0.25558302 0.7986446 0.35275942
O -1.011388 1.7112244 0.9894575
C 0.6905065 1.040225 -0.68929684
N -0.6118357 -0.59058887 0.5466335
H -1.7300541 1.2616907 1.452552
H 1.468104 -0.6724695 -1.923511
H 0.15234374 -2.180324 -0.39488062
H 0.36138433 0.07325082 1.2000861
