10

N -0.13403225 0.69446715 -1.04267078
C 0.63665107 -0.44602832 -1.25778935
C 0.74398000 -1.32216683 -0.19342878
O -0.25193510 -0.93113895 2.00157164
C 0.03527435 -0.57025159 0.74711565
N -0.40245155 0.67445128 0.31152010
H 0.17904370 1.59393728 -1.38970864
H -1.33361414 1.00339456 0.55305497
H 1.07302906 -0.52697134 -2.25054729
H -0.54594524 -0.16969307 2.52088244
