10

N -0.35389182 0.16918734 -1.2012883
C 0.28081584 0.5921239 -0.0005357059
C -0.2981849 -1.2982405 -1.0898043
N -0.1984152 -1.8360914 0.14767268
C 0.7672149 -0.8630614 0.26089165
C -0.57692313 1.0702608 1.103892
N -1.2729748 1.415643 1.9564602
H 1.0869261 1.3130149 -0.17368805
H 1.7830999 -1.1288885 0.53360945
H -1.2176666 0.56605226 -1.5372099
