10

N 0.43962336 -0.92142254 -1.2270131
C -1.5470852 0.4195609 0.36493117
C -0.20719929 0.233397 0.8887538
N 0.9200308 0.95028114 0.2843157
C 0.16818096 -1.3151317 -2.299612
C 0.8109596 -0.47084472 0.04744429
N -2.6174412 0.590106 -0.032679673
H -0.14907527 0.12566449 1.9690598
H 1.5555953 -1.0950389 0.53511363
H 0.6264109 1.4834282 -0.53031373
