11

O 0.63218740 -0.64918638 1.67865584
C -0.70188893 0.40127547 -0.00364424
C -1.37814551 -0.84486536 -0.54136487
N 1.73543884 0.49549792 0.05416370
C 0.61385878 0.03198631 0.66890949
O -1.85398784 -0.92399243 -1.64564497
H 1.71057403 1.00901614 -0.80759927
H 2.62602991 0.21750524 0.43541296
H -1.34961297 0.80327152 0.78421418
H -0.60923149 1.14393988 -0.80316669
H -1.42522225 -1.68444854 0.18006393
