11

O 1.4071437 -0.74164516 1.0530424
C -0.33691055 0.6875024 0.25983667
C 0.8779015 -0.21547459 0.090251096
N 1.2978675 -0.39670137 -1.1909525
C -1.5151997 -0.11768633 0.77232003
O -2.626686 -0.04322221 0.31278238
H 2.0595472 -1.0380856 -1.3466884
H -0.6279386 1.2302585 -0.6457518
H -0.07782629 1.4105484 1.0421077
H 0.8205273 -0.0024682323 -1.9806874
H -1.2784262 -0.7730259 1.6337398
