10

O -1.0476578 -1.4972843 1.8163937
C -0.2909356 0.8407428 -0.7291156
C 0.6310187 -0.3063131 -0.6074172
C 0.16806208 0.37641194 0.64839315
O -0.12294478 -1.4969075 -0.29864353
C -0.48140562 -0.9511497 0.9269212
H 1.6228417 -0.43276694 -1.0190427
H -1.313998 0.67279243 -1.0542803
H 0.14884928 1.7839191 -1.039061
H 0.68617004 1.010555 1.3558521
