9

O 1.0065215 -0.9444407 -1.5001307
C 0.30976993 -0.35184574 -0.519588
C -0.9417365 -0.6220544 -0.07999377
O -1.1993195 0.26736423 0.939063
C -0.09135658 1.0033337 1.0372342
N 0.8479107 0.6916337 0.20259471
H 1.8630437 -0.49647844 -1.540361
H -1.7177757 -1.3258513 -0.32943135
H -0.07705759 1.778339 1.7906128
