10

N 1.0299456 -1.3111827 -2.718845
C 0.21960026 -0.5056689 -0.40641075
C 0.67054975 -0.9834853 -1.6686404
N 0.04862966 -1.1450089 0.6795968
C -0.5737891 1.0722018 1.2541026
C -0.41207546 -0.22215615 1.646678
N -0.13019253 0.9195652 -0.22017801
H -0.6114963 -0.6092861 2.6383233
H -0.8971142 1.2334601 -0.8200574
H 0.65594244 1.5515612 -0.38456914
