11

C -1.03579164 1.66625398 0.95208564
N 0.62878563 -1.20319761 -0.21331628
C 0.05142150 -0.46196205 0.61621883
O -0.82424888 0.56400210 0.23879083
C 0.40911359 -1.04517911 -1.63864463
O -0.16336873 1.67783069 1.96072665
H -0.34907008 2.49278132 2.44845426
H 0.15441678 -0.59444323 1.68917080
H -0.27429719 -0.23426487 -1.91951631
H 1.38246779 -0.87034477 -2.10902217
H 0.02057128 -1.99147640 -2.02494824
