11

C 0.49587125 -1.2297597 1.5096024
N -0.59942555 -0.32022443 1.2337282
C -0.6836781 0.29513788 0.14911513
O 0.26878175 0.1308112 -0.8825317
C 0.22097018 0.9331366 -1.9345872
O -0.6287327 1.9019169 -1.9501656
H -1.4926784 0.97978634 -0.07952878
H 0.072067216 -2.2106998 1.7401769
H 0.11455182 1.7260087 -2.8850763
H 1.0124505 -0.8729548 2.4051666
H 1.2198219 -1.3331585 0.6941007
