10

O 0.42473722 1.6717473 0.7219274
C -0.7188444 -1.5388488 0.07413612
N 0.7532773 0.37195843 -1.0902209
C -0.009762793 -0.304162 -0.1505934
C 0.9504776 1.5039015 -0.506032
N -0.15217939 0.41284665 0.9429743
H -0.19601327 -2.4577873 -0.18784398
H 1.4979016 2.351307 -0.89922255
H -1.7393606 -1.5080028 -0.310117
H -0.8102332 -0.50296044 1.4049919
