10

N 0.13634429 -0.97316685 -0.29777107
C 1.48730681 -1.23144828 -0.13626318
O 0.46963255 1.17561676 0.51998278
N -1.63130066 0.45242500 -0.08328410
C -0.31114025 0.18651532 0.03266856
O 1.97444056 -2.30135542 -0.40455167
H -0.06492351 1.94671079 0.74258363
H 2.11127084 -0.39794122 0.25327021
H -2.18911872 -0.25724344 -0.52917092
H -1.98251179 1.39988698 -0.09746401
