11

C -0.35629755 1.805218 -0.45339537
O 0.6082442 -2.6816761 -0.30906862
C 0.25717628 -0.43269464 0.011225605
C 0.09832879 -1.8161448 0.501871
O -0.65007526 0.48532894 0.05732224
H 0.6813082 -1.5640955 1.4922421
H -0.9285937 -1.9539877 0.9176675
H -1.2507937 2.1363533 -0.97828346
H 0.4988495 1.7678498 -1.1304617
H 1.191234 -0.20400605 -0.50676924
H -0.14938098 2.4578552 0.3976498
