11

C -1.3063798 0.10172543 -0.7833902
O 0.068559594 -0.017160164 -1.0849161
C 0.81938004 -0.53053665 -0.01818996
C 1.0210145 0.4958727 1.0848602
O 1.2854058 0.20839186 2.2246454
H -1.7467791 -0.8745651 -0.5355303
H -1.4840997 0.7902988 0.056727424
H -1.7947646 0.4995293 -1.6738926
H 1.8095987 -0.7766749 -0.42038152
H 0.38582134 -1.4486115 0.40698045
H 0.942243 1.5517302 0.74308735
