11

C -1.21446987 -0.33692126 -1.36909057
O -0.17498779 0.64868661 -1.39083724
C -0.06516346 -0.41973147 -0.48576446
C 0.87905772 0.46140417 1.44623967
O -0.25659333 -0.14097244 0.84462902
H -2.15721540 0.00316118 -0.94656864
H 0.64864777 0.58254729 2.50635236
H -1.28035397 -0.96017756 -2.26001667
H 0.76766482 -1.10074044 -0.68722825
H 1.76872039 -0.17819730 1.34291054
H 1.08469289 1.44094120 0.99937437
