14

C -0.91331774 -0.26232395 2.022131
N -0.05457292 0.6717377 1.3390887
C 0.5934994 -0.35479906 -2.1634586
O 1.0348192 1.6421752 -0.17106871
N 0.04449628 -0.35181192 -0.82344615
C 0.3253788 0.6006421 0.086041115
H -0.2008954 -0.5134874 -2.8969605
H 1.3595985 -1.1271805 -2.288881
H -0.46437478 -1.157656 -0.49900857
H -0.47218907 -1.2686293 2.0755963
H 0.6709292 1.7613168 1.0644794
H 1.0468628 0.62249863 -2.3370228
H -1.9007661 -0.34347618 1.545239
H -1.0694683 0.08099432 3.0472715
