14

C -0.6492986 -0.07225583 0.03574913
N -1.8060275 -0.3421119 -0.42803404
C 1.1729972 -0.113582686 1.7157198
O 0.35509434 0.3035353 -0.77713704
N -0.23566572 -0.07660728 1.350625
C 0.018399637 0.41914436 -2.1527414
H 1.6657763 -1.054308 1.4382998
H 0.9372109 0.7396256 -2.644863
H -0.32345003 -0.5387223 -2.554122
H -0.7728194 1.1611515 -2.2958417
H -2.4532983 -0.5813172 0.31649593
H 1.6997238 0.70842695 1.2299348
H -0.85635304 -0.57455903 1.9680371
H 1.24771 0.021580655 2.7978778
