14

C 2.1226866 -0.16648793 -1.1954501
N 1.1187875 -0.54458946 -0.21768123
C -0.034411494 0.20676522 -0.11905082
O -0.18857808 1.271785 -0.6891792
N -0.9981763 -0.3668575 0.68932927
C -2.1563523 0.4260964 1.0628397
H 1.8459228 -0.4493738 -2.2192616
H 3.0711153 -0.64225256 -0.9360776
H 2.2483258 0.9161806 -1.1646144
H 1.0211333 -1.536962 -0.053560935
H -0.65658575 -0.9982841 1.4011422
H -2.9280245 -0.23468995 1.464811
H -1.9224906 1.1986221 1.8062003
H -2.5433524 0.9200479 0.17055357
