14

C 1.70715399 -1.22260988 0.26215218
N 0.75995781 -0.13646805 0.09730200
C -1.20574993 1.71422866 -0.68736350
O -0.82983693 -1.40398025 1.06051114
N -1.52704504 0.50796773 0.04411630
C -0.57505655 -0.27968877 0.35559915
H -0.79176119 1.50537114 -1.68726512
H 2.71622861 -0.81863848 0.15856765
H 0.97111712 0.53683184 -0.62158112
H 1.56657695 -2.02525488 -0.47338176
H 1.60666211 -1.65125906 1.26088215
H -1.78406492 -1.37515262 1.21731933
H -0.49124639 2.35832449 -0.15356667
H -2.12293614 2.29032820 -0.83329166
