10

N -1.2244465 -0.7091053 -0.2952579
C -0.630576 -0.0069097476 0.6973981
O -1.1220579 0.20477557 1.78548
C 0.76440996 0.5559924 0.38176638
C 1.302711 0.19359408 -0.92651176
N 1.6824706 -0.1214552 -1.9712485
H -2.1393619 -1.0976 -0.1195536
H -0.7815166 -0.8807508 -1.1835161
H 0.70572454 1.6459461 0.46381193
H 1.4426434 0.21551293 1.1676315
