14

C 0.9193688 -2.0284777 1.3234143
N -1.1834724 2.4647834 -1.8797563
C 0.08876412 -0.17999938 0.16848804
O -0.067167066 0.28445718 1.367382
N -0.27580324 0.592787 -0.90749
C -0.86264765 1.8428448 -0.8196241
N 0.5810704 -1.3860347 0.07035596
H -0.15430842 0.21633714 -1.8359157
H -0.9846194 2.1802082 0.21302758
H 1.9494091 -1.8006079 1.6066082
H 0.7411029 -3.101914 1.2608936
H -1.6396484 3.3421054 -1.6413488
H 0.13882753 -0.62063795 1.9105492
H 0.7491237 -1.8058517 -0.8365835
