14

C -2.51391467 -0.19059455 0.83717285
N -1.48008865 0.00994175 -0.12888019
C -0.22443552 0.00089260 0.20139962
O 0.11387579 -0.19588382 1.45742428
N 0.75840128 0.13558914 -0.74171003
C 2.12183508 0.02043885 -0.51299721
N 2.94027107 0.17552445 -1.47155969
H -0.71267748 -0.42204125 1.92718638
H -2.58393108 0.66091600 1.51474866
H -3.44953803 -0.43888834 0.34263146
H -1.72270355 0.08308364 -1.11343635
H 0.50039283 0.31263218 -1.70129252
H 2.36111249 -0.19833005 0.53078084
H 3.89140022 0.04671933 -1.14146824
