14

C -2.3917592 -0.079185426 0.9716855
N -1.350602 0.135861 -0.0133528365
C -0.033560794 0.03742113 0.34615424
O 0.35934395 -0.07623019 1.4912968
N 0.84189737 0.10669618 -0.73470044
C 2.2137399 0.005914693 -0.5922892
N 2.9626966 0.110174015 -1.6139265
H -2.0363739 0.2903848 1.9340277
H -2.652038 -1.1395326 1.0813304
H -3.2859254 0.4810116 0.68151987
H -1.593241 -0.021853017 -0.9787037
H 0.51219887 0.30533624 -1.6698554
H 2.517516 -0.16510054 0.44112843
H 3.9361074 0.009102063 -1.344315
