9

O -0.7803496 1.5470487 -0.77252364
C 1.2127358 -0.11120868 -0.1410708
C -0.571547 0.37072572 -0.6232647
C 0.28740823 -0.3419083 0.86188406
C -0.9523928 -0.37297162 1.0426252
H -0.8045172 -0.4951189 -1.2515633
H -1.827082 -0.4649965 1.6558536
H 1.7569919 0.828746 -0.14001289
H 1.6787529 -0.96031636 -0.6319275
