9

O 1.2231749 1.1567309 -1.4669131
C -0.5121814 -0.4414343 0.19354308
C 1.319637 1.121083 -0.2621168
C -1.4723189 -1.2064569 -0.23550624
C 0.45580631 0.32581335 0.6437658
H -2.4763906 -0.81508976 -0.3737214
H -1.2858894 -2.2492135 -0.47708097
H 0.6501046 0.39766327 1.711942
H 2.0980575 1.7109039 0.2660876
