10

N 0.19834275 -0.82818563 0.67836716
C 0.50563248 -1.84867913 1.26880971
C -0.11223307 0.08824956 -0.16519489
O 2.12291480 0.36163824 -0.91612228
C 0.94947790 0.63219115 -1.02259464
N -1.43123296 0.52718506 -0.35422706
H -2.10368910 -0.01939112 0.16738959
H 0.86932184 -1.74966327 2.29532610
H -1.55977934 1.51173044 -0.15413558
H 0.56124448 1.32492462 -1.79761790
