10

N -1.1217462 1.0730419 -0.2051709
C 1.0170687 0.23040687 -1.1222111
C -0.16409677 -1.939238 1.2229412
O 1.9840047 -0.49503687 -1.1381975
C -0.08264559 0.1319163 -0.15310581
N -0.08813594 -0.861285 0.6601769
H -0.8190796 2.0176983 -0.00045750084
H -1.9023983 0.82675296 0.3889257
H 0.30895025 -2.0323641 2.2044523
H 0.8680787 1.0481071 -1.8573534
