10

N -0.32341814 -1.002072 -1.5085961
C -0.075058624 -0.4431138 -0.26845935
N -0.031986363 -1.1755042 0.8160451
O 0.31549495 -0.3046652 1.8409106
C 0.45251197 0.92220247 1.3350302
C 0.22496168 0.92960525 0.002608309
H -0.8821192 -0.42621678 -2.1193368
H -0.6746057 -1.9482608 -1.4496155
H 0.72246385 1.6937561 2.0430446
H 0.27175564 1.7542688 -0.6916315
