12

C 1.00295502 -0.49790433 0.72944726
C -0.03334564 0.57504806 0.49396605
N -0.24009434 1.61040423 1.20090451
N -0.85828421 0.41592789 -0.62570062
C -0.84942532 -0.59102638 -1.55684567
O -1.60547414 -0.63696615 -2.49891434
H 0.40312901 1.64415517 1.98762845
H 1.70180014 -0.57111450 -0.11065057
H 1.57306715 -0.25515989 1.62929483
H -1.54802760 1.14755386 -0.75496983
H 0.53771921 -1.47902328 0.87073809
H -0.08401915 -1.36189495 -1.36489797
