10

O 1.9815464 -0.81850964 -0.16325338
C 0.79196095 -0.19071856 -0.11289622
C -1.2596622 0.50275064 0.26791596
N 0.55805874 0.7773095 -1.0024763
C -0.287937 -0.36229044 0.75723475
N -0.7955159 1.2379588 -0.7507516
H -0.35023692 -1.0164583 1.6181184
H 2.0215733 -1.469625 0.5455411
H -2.270806 0.6534599 0.62178904
H -0.3889816 0.68612313 -1.7812216
