14

C 1.51592299 -0.02687828 -1.59205703
N 1.57506205 -0.10149345 1.02563104
C 0.42564806 -0.12368088 0.47457320
O 0.29498660 -0.05665277 -0.86152140
N -0.81110247 -0.24608716 1.07837463
C -2.04135468 0.14599884 0.41030166
H 1.22021657 0.03056225 -2.64029784
H 2.10225115 -0.93177932 -1.40699903
H 2.11920751 0.84121189 -1.31385671
H 1.49867622 -0.16923546 2.03459997
H -2.11581213 -0.35731411 -0.55433355
H -2.88199897 -0.17276518 1.03221001
H -0.78874894 -0.06028607 2.06927088
H -2.11295447 1.22839955 0.24410426
