14

C 2.1220102 -0.16661744 -1.1961474
N 1.1240699 -0.54365236 -0.21252821
C -0.036379963 0.20627923 -0.11818991
O -0.19481082 1.2703971 -0.6913236
N -0.9961946 -0.3658035 0.6905098
C -2.1552122 0.42659205 1.0623213
H 1.8402251 -0.45066845 -2.2185307
H 3.0712628 -0.6425943 -0.9413968
H 2.2504182 0.9158361 -1.1647733
H 1.0192436 -1.5363185 -0.053777855
H -0.65572983 -0.9964622 1.4036088
H -2.9233642 -0.23570138 1.4677312
H -1.920614 1.2014154 1.8030585
H -2.5449247 0.9172981 0.16943826
