9

O -1.380639 0.33265418 -0.2515902
C -0.0059931898 -0.831471 -1.840951
N 0.7008935 -0.047187556 0.39356887
C 0.85650635 -0.66448426 -0.8471994
C -0.4967955 0.50805354 0.75949275
O -0.7380769 1.0579149 1.8034754
H 1.8284948 -1.1030052 -1.0759588
H 1.4593924 0.01948858 1.051062
H -2.2237823 0.7280369 0.008100659
