11

O 1.2005122 0.6385191 -1.9645013
C 0.16529225 0.6860796 -1.3557985
C 0.043185566 0.16476993 0.054216255
C 0.86435044 -1.005176 0.43899414
O 1.198137 0.28798562 0.8708722
C -1.2524618 0.36527684 0.7764967
O -2.2873144 0.59896106 0.20467879
H -0.7674452 1.0999078 -1.7830992
H 0.49624142 -1.683382 1.2093172
H 1.5152847 -1.4226044 -0.32829815
H -1.1757823 0.26966262 1.8771217
