11

O 1.1736498 0.28114116 -0.6131189
C -0.9972218 1.1465462 0.17352238
C 1.1383042 -0.575556 -1.6169848
C -0.13353974 -1.2293549 0.8018318
O 0.0038975098 1.1936073 1.199392
C 0.074391864 0.16537075 0.27070203
O -1.1501745 -1.5602168 1.3516297
H 2.0708816 -0.30822232 -2.1601455
H -1.9917552 0.8591618 0.506111
H -0.9132957 1.9379342 -0.5685549
H 0.72486204 -1.9104117 0.6556151
