11

N -2.0020003 -0.5190036 -1.9155599
C -1.5743331 0.027011687 -0.99209344
C -0.996931 0.6963978 0.19351187
O -0.31162733 -0.20440885 1.0266694
C 0.8042445 -0.8231456 0.43714818
C 1.8555698 0.15469357 0.0832061
N 2.6506865 0.9425904 -0.19887638
H -1.8007456 1.1195271 0.79882085
H -0.34554678 1.5124103 -0.14779444
H 1.1930268 -1.5211211 1.1807114
H 0.5276567 -1.3849516 -0.4657433
