11

N -0.5239415 -2.6878304 0.6835329
C -0.2609646 -0.12185727 1.2154325
C 1.617791 0.71961784 -0.796927
O -0.7521177 0.6866578 0.15855417
C -0.4033954 -1.5658265 0.938176
C -0.14931548 0.51065433 -1.0534174
N 1.2857503 1.6467224 -1.4811655
H -0.8519916 0.1439591 2.093986
H -0.69487303 1.1007414 -1.7820133
H 0.79982656 0.09966601 1.391087
H -0.06676862 -0.53250456 -1.3672452
