11

N 1.9558867 -1.9637486 0.3964156
C -1.8922219 0.26270497 -1.9630601
C 1.0118558 -1.3711159 0.6950553
O -0.024765817 0.78780454 0.75968945
C 0.1639441 1.0823659 -0.5916223
C -0.18389206 -0.58002794 1.0540874
N -0.9554382 0.6627973 -1.3784869
H 0.26156136 2.1660168 -0.6565932
H -1.0569576 -1.0041443 0.54074574
H 1.0648205 0.59666806 -0.98835677
H -0.34479293 -0.63932085 2.1321256
