11

C -0.1187902 1.2577019 0.64179575
C -0.7999658 0.2871272 -0.29000658
C 1.0129933 -1.3933486 0.2020306
O -1.9202439 0.43368492 -0.7083891
C 0.01386336 -0.926795 -0.76167625
N 1.7933987 -1.7417064 0.97796005
H 0.5266847 -0.6385116 -1.6873908
H 0.03933595 0.7791755 1.6139079
H -0.6806129 -1.7346206 -1.0121226
H 0.8701275 1.5296627 0.2590123
H -0.7367908 2.1476295 0.7648785
