11

C 0.95472459 -0.55288137 -0.47129064
C -0.45121129 -0.76898322 0.10753713
C 1.57942102 0.71239151 -0.07949644
O -0.83500762 -1.89530194 0.29635619
C -1.29170006 0.45725043 0.36091568
N 2.05015724 1.71582202 0.24297354
H 0.86700570 -0.57753793 -1.56433131
H 1.58552608 -1.39700849 -0.17609285
H -1.28704229 1.11499741 -0.51417933
H -0.86030741 1.02966977 1.18870183
H -2.31156589 0.16158233 0.60890618
