11

C -0.43841615 -1.3802837 -0.5693133
C -0.5141925 0.014646526 0.037904225
C 0.84133327 0.6447379 0.22452764
O 1.8962775 0.14598516 -0.063540824
C 0.81179893 2.0084467 0.8221096
N 0.7805298 3.064766 1.2845286
H 0.045256127 -1.3548921 -1.550661
H -1.4450221 -1.7880163 -0.68844086
H 0.1385007 -2.0558534 0.067784995
H -1.0077742 0.00393798 1.0191764
H -1.1082913 0.69652575 -0.5840755
