11

C 0.7901863 0.009619846 0.92009795
C -0.5104926 0.18966234 -1.1567794
C -0.3286136 0.740254 0.3958005
O -0.45493597 2.0002723 0.4378928
C 0.8650811 -1.4062318 0.8674011
N 0.9201316 -2.5651941 0.80125594
H -1.2244474 0.13488908 0.7607216
H -0.54391366 -0.8980467 -1.2129488
H -1.448047 0.64534444 -1.4727101
H 0.31924835 0.6054685 -1.7276855
H 1.6158029 0.5439624 1.3869537
