11

C -0.98978233 0.8922301 -0.11712745
C 0.05732033 -0.1959547 -0.1732933
C 0.6757813 -0.7379186 1.0453603
O -0.31357598 -1.4647586 0.33620718
C 0.8386678 -0.24395244 -1.4089129
N 1.4495858 -0.24980304 -2.3899498
H -1.7197099 0.7637327 -0.9208962
H -1.5131856 0.8462819 0.8413553
H -0.52627385 1.8775748 -0.22420533
H 1.6793283 -1.1547425 1.0058177
H 0.3618441 -0.33268958 2.0056448
