11

C 0.3195555 -0.587397 -1.0727334
C 0.102684766 0.42375723 -0.008666136
C -0.7269124 1.5641721 -0.29768458
O -0.84894055 -1.2061912 -0.58835554
C 0.32222158 -0.07899112 1.2866313
N -1.3558351 2.5082335 -0.5383304
H 0.21203534 -0.22324188 -2.0974214
H -0.42957404 -1.0644797 0.6795524
H 1.2690631 -0.5956938 1.4520615
H 1.2414337 -1.1717376 -0.9568215
H -0.10573203 0.4315696 2.1417675
