11

C -0.38070638 0.13140916 1.53247928
C 0.21453863 -0.14717029 0.37087166
C 0.94330842 -1.37832325 0.19511284
O -0.52514228 0.09300063 -1.92790090
C 0.11604784 0.73523824 -0.85073993
N 1.53501876 -2.35706753 0.04486288
H -1.36687244 -0.26028161 -1.61923158
H -0.94264209 1.05564682 1.64688462
H -0.38493773 1.67357784 -0.56493194
H 1.11764320 0.98575289 -1.21441174
H -0.32625595 -0.53178286 2.38700511
