11

C 0.42717907 -1.5279362 0.5573184
C -0.02492417 -0.16606748 0.42075178
C -1.0317312 0.29470968 1.1659225
O 0.49447063 0.08626174 -1.9363066
C 0.6581219 0.64566416 -0.6540598
N 0.8021731 -2.6137228 0.66259646
H -0.44445097 -0.069653526 -2.0870097
H -1.5313267 -0.31505844 1.9086136
H 0.2872812 1.6813277 -0.5989947
H -1.375393 1.3190851 1.0409139
H 1.7386003 0.6653901 -0.47974586
