10

O 0.7207936 -1.4794328 1.4585193
C 0.29306632 -0.6947927 0.6613685
C 0.7010606 -0.3836815 -0.79938585
O 1.4638232 0.64656806 -0.98464215
C -0.85329044 0.2981051 0.6725975
O -0.7275972 0.5636825 -0.75272316
H 0.27715877 1.1926175 -0.87278247
H -0.7082324 1.1928068 1.2841069
H 0.6541729 -1.1750652 -1.5537363
H -1.8209549 -0.1608077 0.88667744
