10

O 0.97007790 -0.91501470 -0.87699055
C 0.57910013 -0.86434828 0.52515776
C -0.49386632 0.17316322 0.20074065
O -0.33741292 1.38054850 0.88486031
C 0.10905644 0.08298534 -1.20579153
O -0.02249280 0.63039434 -2.25479030
H 1.38781370 -0.47103262 1.14327766
H -1.52123741 -0.21559105 0.23636248
H 0.24158293 -1.84043533 0.87263813
H -0.91262148 2.03933035 0.47453545
