11

O -1.4703243 1.6293666 1.2728536
C -0.75079113 0.8427375 0.693182
N -0.7582953 0.56180775 -0.65180963
C 0.22156076 -0.42661032 -1.0340478
C 0.87359107 -0.74588656 0.2866749
C 0.32448015 -0.027051456 1.2647231
H -1.3953041 1.0130078 -1.2861812
H 0.94968206 -0.032857448 -1.7554523
H -0.23878194 -1.3175457 -1.4801685
H 1.6746632 -1.4700192 0.3723066
H 0.5695193 -0.026948797 2.3179193
