11

O -0.6348992 0.6512975 -1.3091158
C -0.03345013 -0.5934623 -0.96231353
N -0.988141 0.24843316 1.1755712
C -0.27285627 -0.8501169 0.56969905
C 0.6356284 0.6595972 -0.6638004
C 0.41243398 0.43180183 0.87518287
H 1.4528903 1.1721119 -1.1564696
H 1.1100512 0.6863599 1.6630265
H -0.22635882 -1.8114321 1.0663202
H 0.12070383 -1.3187727 -1.7517782
H -1.5760022 0.7241825 0.49367744
