11

O -1.4736642 1.6289424 1.2689327
C -0.75246316 0.8412135 0.6926322
N -0.7590591 0.5604661 -0.65227926
C 0.2244301 -0.42689282 -1.0355182
C 0.87555426 -0.74558705 0.28792402
C 0.3236619 -0.027857175 1.2639805
H -1.4012686 1.0116093 -1.2822652
H 0.9519095 -0.03027786 -1.7562104
H -0.23462582 -1.3178176 -1.4819335
H 1.6782849 -1.4677658 0.37567574
H 0.56723994 -0.026033008 2.3190618
