10

O -1.6900414 -0.3744614 0.22434658
C 0.70312446 -0.48454702 0.51659226
C -0.33331993 1.3325192 -1.2332584
O -0.38106096 0.13719028 -1.6583554
C -0.5948551 -0.10388327 -0.16881591
O 0.5255729 -0.5000066 1.9010398
H 0.9756735 -1.4779575 0.1180116
H -0.36800924 -0.8387111 2.0600362
H -0.3417003 2.0917444 -2.0377092
H 1.5046161 0.2181128 0.27811214
