10

O 0.76074686 -1.32639668 0.46543358
C -0.40577211 -1.82264030 0.82032528
C 0.74333981 -0.01838528 -0.08309827
O 1.79283556 0.43482261 -0.42489010
C -0.58101814 0.69341015 -0.20428552
O -0.40858443 1.98536267 -0.70364161
H -1.06198666 0.72407524 0.78277286
H 0.50719098 2.07136926 -1.00723866
H -0.10965477 -2.82592905 1.20012832
H -1.23709700 0.08431093 -0.84550596
