11

C 1.2401415 1.1973525 -0.14383678
C -0.3905705 -0.5983547 -0.54544437
O 0.9225918 -1.1321268 -0.71108824
C -0.81273276 -0.35291103 0.8163518
C 0.7478374 0.2115221 -1.1349777
N 0.73743635 1.2231194 0.9571542
H 0.20522709 1.049101 1.791429
H 0.8557181 0.38877946 -2.2007456
H -1.8085873 0.08479554 0.9222342
H -0.5822531 -1.1337559 1.5379369
H -1.1148086 -0.93752176 -1.2890135
