11

C -0.61407348 -0.40934074 -1.12187544
C 0.77348897 0.08650524 -1.43594495
O -0.60798424 -1.53837429 -0.23097417
C 0.32988088 0.36541825 0.93500272
C -0.89328668 -0.26883769 0.32163604
N 1.20746448 0.47171673 -0.25367270
H 0.12223660 1.35522178 1.35498742
H -1.38988399 -0.43716145 -1.88095870
H -1.88425791 -0.12790898 0.74415724
H 2.16863500 0.76922219 -0.13368462
H 0.78778086 -0.26646051 1.70132693
