10

C -0.17329504 1.034033 -0.18368831
C -0.97064173 -1.0938685 0.24228278
N -0.26428214 -1.3154243 -0.78552306
C 0.7859207 0.3592403 0.6206867
N -0.65892065 0.15792319 0.91747314
C 0.5809332 -0.1200276 -0.7938097
H -0.44021153 2.0628986 -0.3790261
H -1.7511655 -1.7379597 0.63313067
H 1.5697883 0.6522 1.3043399
H 1.3218744 0.0009850503 -1.5758661
