10

C 0.8200516 -0.09488068 0.7841224
C 0.44799882 1.1374853 0.25950718
N -0.50964946 1.2603858 -0.6581807
C -1.0919025 0.12575929 -1.0458578
N -0.82319325 -1.1047627 -0.61792773
C 0.13776267 -1.204483 0.30014855
H 1.5992237 -0.18657446 1.5326008
H 0.9305739 2.0569768 0.5849922
H -1.8743296 0.21706447 -1.796651
H 0.36346412 -2.2069707 0.65724635
