11

N -1.2039671 0.57181036 1.1198846
C 0.32271147 -0.13631403 -0.27030945
C -0.83887064 0.11264758 -0.9556
C -1.8641609 0.5437554 -0.040531896
N 1.5868534 -0.46979612 -0.6993043
N 0.110317014 0.051623512 1.0785059
H 0.7972983 0.60407025 1.5828984
H -0.9711371 -0.030854296 -2.0202322
H 1.6242884 -0.69197 -1.6851703
H -1.6255567 0.6101775 2.0324378
H 2.0622237 -1.1651502 -0.14257844
