11

N 1.0346445 -0.0041219243 -0.4249807
C -1.13756 0.34168956 -0.26637805
C -0.03400212 -0.17924635 0.38349035
C -0.69075555 0.9444999 -1.4714646
N 0.09495866 -0.823392 1.5928776
N 0.6851376 0.72393525 -1.541229
H 0.94099444 -0.6270806 2.1075869
H -2.1517031 0.3306658 0.107280575
H -0.012499751 0.28208715 -2.4109142
H -0.7267919 -0.7518441 2.1746056
H 1.9975775 -0.23719275 -0.2508744
