11

N 0.10301768 0.71145797 -1.720676
C -0.0055393525 0.16662946 -0.43733925
C 0.88939226 -0.5064873 0.368127
C 0.13098769 -0.858078 1.5074127
N -1.1176962 -0.43854156 1.4335693
N -1.1810434 0.18397705 0.23506005
H 1.0490983 0.6326376 -2.0715604
H -0.1934866 1.677207 -1.7741365
H 1.9316621 -0.7041892 0.16556156
H 0.46058634 -1.3966453 2.3855362
H -2.066979 0.53203213 -0.091554284
