13

N 1.1944972 -0.09636276 0.7457313
C 0.87707984 -1.2561811 -1.3990288
C 0.44120216 -0.15673389 -0.5245263
N 1.2430247 -2.1011298 -2.0963802
C -1.0149773 -0.3380455 -0.1462481
N -1.2563156 0.88209134 0.7435992
H -2.073482 0.7403197 1.3337885
H -0.41180724 0.89144105 1.3557706
H 0.7100982 0.7873645 -1.0507238
H -1.6414578 -0.21665251 -1.0368772
H 1.0926372 -1.0016003 1.1989964
H 2.1818297 0.07010857 0.58640724
H -1.3423289 1.7953806 0.2894911
