13

N -0.6084964 -0.86193484 -1.4375474
C 0.44035685 -0.039508693 -0.8405545
C -0.08063627 0.54781675 0.4795087
N -0.52534217 -0.5336834 1.3486036
C 0.98655355 1.3199636 1.1379362
N 1.8193884 1.9417093 1.6432122
H -0.5135741 -0.8818456 -2.4470606
H -0.51557595 -1.8222945 -1.1273984
H 0.6859262 0.78512037 -1.5174223
H 1.3644683 -0.59650093 -0.63147336
H -0.886388 1.2567027 0.23295188
H -1.344521 -0.94441247 0.91221523
H -0.82215935 -0.17113164 2.2470284
