11

C -0.36084298 1.01718430 0.62243509
C 0.46868081 1.97564887 0.95270795
N -1.23567645 0.19317478 0.36304801
C 0.29983446 -1.29904828 -0.76812893
N -1.05842971 -0.83865714 -0.54213903
H -1.69236291 -1.57474098 -0.27399167
H 1.11412092 1.87883097 1.81721540
H 0.51379450 2.88773145 0.36541419
H 0.26304969 -2.17783317 -1.41563955
H 0.85761089 -0.51050290 -1.28200015
H 0.83022112 -1.55178819 0.16107890
