11

C -0.5252619 1.040925 0.54341346
C -0.07577643 -0.048227463 -0.4308417
N 1.3777235 -0.14241046 -0.44787467
C -0.71892875 -1.3476924 -0.10450126
N -1.1580044 -2.382555 0.16236407
H -1.6126815 1.1597788 0.53073776
H -0.22085753 0.7952737 1.5666332
H -0.057031646 1.9867411 0.25797874
H -0.402568 0.22465885 -1.4401523
H 1.6796153 -0.85770583 -1.1047213
H 1.7137717 -0.42878658 0.4669642
