9

O 1.5197288 -0.116424814 -0.44199857
C 0.16392285 0.3020776 -0.54828984
C -1.7383156 -1.4564675 0.024499308
C 1.055635 0.8449267 0.486264
C -0.86335456 -0.6692861 -0.22548677
H 1.4605662 1.8484912 0.36877102
H 0.9477613 0.48934212 1.5092487
H -2.5059326 -2.1623094 0.25058135
H -0.040011454 0.9196506 -1.4235892
