12

N -0.26868367 -0.010527727 -2.0513387
C -0.15812837 -0.036737982 -0.6545009
C -1.0317228 -0.30988234 0.33225477
N -0.35759118 -0.09703601 1.5482203
C 0.9320468 0.33356866 1.3322058
O 1.7704406 0.6578224 2.1513638
N 1.0518513 0.3134203 -0.053593453
H 0.2906454 -0.7315331 -2.4948633
H -1.2309943 -0.122890405 -2.3394654
H -2.0474455 -0.67076534 0.28923154
H -0.7674324 -0.09124473 2.4653811
H 1.8170137 0.7658064 -0.5248955
