12

N -0.82345045 -0.7248758 -1.1307122
C -0.087540574 -1.4448469 -0.27332035
C 0.24603623 0.65125203 0.26203722
N 0.83365405 1.7141805 0.9364453
C -0.6202098 0.6441009 -0.7925321
O 0.16716166 -2.6791856 -0.02816718
N 0.5622468 -0.662059 0.5768983
H 0.87033343 -1.8979152 0.87675625
H -1.3973384 -1.0918328 -1.8692122
H 0.28560728 2.5622842 0.8880789
H 1.053046 1.4844568 1.896205
H -1.0895463 1.4444406 -1.342477
