9

O 1.468278 0.73306656 -1.6939967
C 0.6193914 0.053723045 -0.9184789
N -0.21926406 -0.846285 -1.1864316
N 0.7290904 0.22773142 0.4196614
C -0.34034857 0.08142878 1.2200693
N -1.3157561 -0.7153125 0.9691293
H -0.2613142 0.675753 2.1371741
H 1.3836397 0.40464094 -2.6007986
H -2.0637164 -0.61474633 1.6536717
