9

O -1.358023 0.37235114 1.687199
C 0.33064756 -0.6679965 -0.9477672
N 0.082278155 1.6384029 0.16252777
N 1.5794042 -0.54979014 -0.7990158
C -0.6931199 0.788244 0.6374467
N -0.60507154 0.36769462 -0.6723179
H 2.0523221 -1.3911636 -1.1284022
H -0.19797865 -1.5320935 -1.367584
H -1.1904589 0.9743511 2.4279137
