9

O -0.09401755 1.05670988 1.92458756
C 0.00086171 -1.02906826 -0.62835306
N -0.66833041 1.44575881 -0.42504699
N -0.96264496 -0.15411749 -0.05370996
C -0.47451851 0.90598717 0.67978051
N 0.83752190 -0.67903708 -1.50754062
H 1.37314303 -1.48766938 -1.82262768
H 0.14176822 1.98470266 2.07416840
H -0.15378348 -2.04326633 -0.24125800
