10

C -0.22306778 0.97427636 -0.3699826
C -0.6275324 -0.038494572 -1.2368804
N -0.45336458 -1.3340386 -0.98937935
N 0.13371411 -1.71099 0.13708438
C 0.54017603 -0.7885348 1.0048192
C 0.3883976 0.5801614 0.8050535
H -0.3878904 2.0182219 -0.6166419
H -1.118957 0.18513112 -2.1815002
H 1.0116675 -1.180845 1.9036448
H 0.73685694 1.2951121 1.543783
