11

N 0.0103428755 -2.439385 -0.041012656
C 0.0025914111 0.6375651 0.75568753
O 0.9262651 -0.4141724 0.76666355
C -0.21605398 0.9074438 -0.73777026
C 0.07340513 -1.357356 -0.5580747
O -0.24291414 -0.4112239 -1.3782316
H -0.9481044 0.3508469 1.2354615
H 0.62526375 1.4405628 -1.178014
H -1.1626287 1.3966943 -0.9786141
H 0.5339337 -1.6432434 0.8642172
H 0.39789906 1.5322679 1.2496876
