11

C 0.6621667 -0.20534007 -1.5237087
C -0.34891218 -0.755831 0.8211279
C 0.036070637 0.10197865 -0.2011625
N -0.26378003 1.3586185 0.16817035
N -0.91687536 1.3100765 1.3030313
N -0.97838265 -0.037112813 1.7591176
H 1.3416406 0.60086083 -1.8100383
H -0.2284283 -1.8264468 0.9114858
H 1.2176473 -1.145811 -1.4861528
H -0.10812665 -0.28906792 -2.2957387
H -0.41302028 0.8880751 2.3538678
