11

C -1.1320386 1.1448971 0.6036462
C -0.22051394 0.02992776 0.20751415
C 0.7629225 -0.012866314 -0.7458311
N 1.2455494 -1.2756317 -0.65591097
N 0.6099783 -1.9769258 0.28617522
N -0.27489424 -1.1964593 0.8114314
H -2.1785944 0.8583803 0.46164858
H -0.93548524 2.0397196 0.00586938
H -0.99996966 1.39936 1.6588486
H 1.145295 0.71218884 -1.4481866
H 1.9777505 -1.7225906 -1.1852049
