10

O 0.7940398 1.932076 -0.7584789
C 0.35474795 0.88822734 -0.37577373
C -0.9293948 0.44087893 0.3273023
N -0.50812113 -0.95703584 0.09505796
C 0.83337885 -0.5644633 -0.3901113
H -0.95735526 0.7660505 1.3762982
H -1.8711447 0.7262325 -0.1538501
H -0.4915364 -1.5250587 0.93328154
H 1.6638975 -0.72660553 0.31103706
H 1.1114881 -0.9803014 -1.3647631
