11

O 0.6790165 -1.1296073 -0.90580225
C 0.5132836 0.4742172 0.8136068
O -0.9182724 0.8277867 0.6894114
C -1.4464474 -0.42467958 0.18997587
C 1.148325 0.2470437 -0.7062706
C -0.030995851 -0.8825987 0.18534665
O 1.1909337 0.95110095 1.696111
H -1.9149001 -0.3401152 -0.7946587
H 2.2332656 0.2819406 -0.6555728
H 0.65519017 0.8932432 -1.4292516
H -2.1093986 -0.8983314 0.9171041
