11

O -0.57593212 1.14209106 -1.30843993
C -0.03387036 0.27192584 -0.39030919
O -0.07253991 -1.11789882 -0.60639028
C -0.46662684 -1.41702331 0.74779200
C -0.47509895 0.08374141 1.04939339
C 0.84385782 1.20734744 -1.08070211
O -0.71588708 0.79631967 1.97520108
H 0.29062711 -1.99363637 1.28805974
H -1.43700572 -1.91898855 0.80686237
H 1.18577068 2.11290257 -0.58250844
H 1.45670542 0.83321883 -1.89895869
