11

N -0.73171806 -0.7585585 1.56036
C -0.19236647 -0.13209403 0.4223505
C -0.12829402 -0.6125576 -0.86828
N 0.40290582 0.3944891 -1.6187778
N 0.6904127 1.4832001 -0.9086027
C 0.3322957 1.1788151 0.3312447
H -0.22167136 -0.5305194 2.4038932
H -0.7719893 -1.7639686 1.4622025
H -0.41469562 -1.56085 -1.2983708
H 0.5816456 0.39470848 -2.6086786
H 0.45347497 1.9073348 1.1226585
