11

N -0.733134 -0.7581182 1.5616411
C -0.19398168 -0.13189162 0.4223602
C -0.12831236 -0.61191195 -0.86891437
N 0.402639 0.39362285 -1.6183333
N 0.69116265 1.4837515 -0.90722907
C 0.33189455 1.1793723 0.3315558
H -0.21907273 -0.5338784 2.402551
H -0.7759918 -1.7626328 1.4614692
H -0.41378433 -1.5591388 -1.3014585
H 0.5840369 0.39400926 -2.6079702
H 0.45454368 1.9068155 1.124328
