9

O 0.7517193 0.24696021 -2.0802064
C 0.2644571 0.10957511 -0.8371423
N 0.98999745 -0.31569234 0.17709486
N 0.079637274 -0.2826628 1.1814289
C -1.1053959 0.1483385 0.7212382
N -1.0284688 0.4101366 -0.5667664
H 1.6831294 -0.00972679 -2.0521708
H 0.346014 -0.5602603 2.1105185
H -1.98109 0.25333172 1.3460059
