11

N -0.3201427 -1.4049712 -1.2509431
C -0.4276302 0.31511006 0.4433976
C 0.07813834 -1.0630068 0.074501604
C 0.41319522 1.4932274 0.2515983
C -0.68046314 -1.6311884 -2.341478
O 0.2334222 0.9116822 1.5371201
H 1.1711429 -1.0863912 0.14470646
H -0.04803519 2.468682 0.11060025
H 1.4100387 1.3778338 -0.17165135
H -1.511327 0.43258372 0.43592918
H -0.31833905 -1.813562 0.76621914
