10

O -0.12412725 -1.1844752 -1.0830035
C -0.06602203 -0.48163486 0.11460507
C -1.3100082 0.3749148 0.33363476
O -1.4838939 1.0059097 1.3446187
C 1.1417418 0.44277042 0.14524944
O 1.9245634 0.44996068 -0.77352136
H 0.67326057 -0.93203104 -1.5792108
H 0.02301668 -1.1510701 0.9868447
H -2.017547 0.37957883 -0.51907647
H 1.2390156 1.0960767 1.0298592
