11

N 1.28452456 -0.74987785 0.04459893
C -0.27678881 0.65337236 -0.80106308
C 0.94628502 0.13440761 -0.97551105
C -0.79951189 0.12083075 0.46530058
N 0.28617772 -0.57170065 1.03149284
N -1.93067396 0.15250700 1.04732397
H 1.65623587 0.29415698 -1.77665507
H -0.82466590 1.29782367 -1.47407322
H 2.20988912 -0.60316741 0.43091169
H 0.04001687 -1.42912152 1.50677831
H -2.59148881 0.70076893 0.50089644
