12

C 1.0957255 1.3755369 -0.74523646
C -1.0215077 -1.3785853 0.81822443
C -0.6176411 -0.30840954 -0.17748751
O -1.3001212 -0.039064057 -1.1516486
N 0.5577548 0.32650313 0.099505536
H 1.0719239 0.049865656 0.9206532
H 0.39251107 1.5164591 -1.566526
H 1.1962496 2.3131993 -0.18875706
H -1.1351217 -2.3217046 0.2776917
H -0.3123671 -1.5131754 1.6395543
H 2.0728695 1.0903533 -1.1501962
H -2.0002754 -1.1109788 1.2242227
