10

O -1.32844655 1.27252456 0.34430036
C 0.50777817 -0.46810691 0.96212454
C 0.62891460 -1.26789036 -0.09781298
C -0.25228676 0.49449321 0.06793458
N -0.20349977 -0.47145418 -1.02080741
N 0.57562962 0.84402021 -1.04898400
H 0.87770072 -0.43239294 1.97523728
H 1.16623262 -2.16314958 -0.38071986
H -0.00398701 1.44615773 -1.63935352
H -1.96803586 0.74579821 0.83808110
