10

O 0.035460193 1.787904 -0.55206287
C 0.15275465 0.5363248 -0.04253148
C -0.8066145 -0.25307116 0.82944226
C -0.45395222 -1.3370152 0.1377127
N 0.4045573 -0.65070975 -0.8477259
N 1.4621402 -0.036342867 0.07008733
H -0.85501623 1.8910593 -0.9080759
H -1.4032943 -0.02686969 1.6996846
H 2.049307 0.49828875 -0.57525396
H -0.5853423 -2.4095685 0.18872327
