10

O -0.37791833 0.10326416 -2.23732898
C -0.18931537 -0.02017898 -1.06193939
C 0.39893444 -1.12090137 -0.16973559
C -0.00991812 0.96859180 0.08355184
O -1.01589042 0.57499247 1.04610119
C 0.79989705 -0.05636007 0.87991986
H -0.26273925 -1.90708138 0.20286992
H 0.13078328 2.04427816 -0.02080119
H -0.76406185 0.99470638 1.88918092
H 1.29022835 -1.58131110 -0.61181851
