10

O -0.57908267 0.22954944 -1.5627881
C 0.42900637 0.78388894 -0.6197337
C 0.13108169 -0.6499568 -0.79237485
C -0.15125933 0.80680686 0.70992744
O -1.4735708 -1.3345717 1.1744152
C -0.5048652 -0.6764845 0.7688589
H 1.2110242 1.3646612 -1.0843768
H 0.7771757 -1.3861675 -1.2672546
H 0.5280104 -0.7640096 1.2788367
H -0.36752048 1.6262838 1.3944901
