10

O -0.63590825 0.25827116 -2.165189
C 0.5543382 0.79818964 -0.029186832
C -0.34189296 -1.1487308 -0.08891243
C 0.7661877 -0.49025318 0.76803577
O -0.3115509 1.0763217 1.0961045
C -0.34897414 0.07182882 -1.018342
H 0.27565357 1.2903079 1.8442767
H 0.039218236 -2.0476882 -0.58735913
H 1.257934 1.5931954 -0.27557346
H -1.2550054 -1.401442 0.45614597
