10

C 0.09406988 -0.53077492 -1.28527700
N 0.15302612 -0.03256469 0.07628150
N -0.25223343 0.87377956 1.99031473
C -0.78990389 0.53501706 0.84673554
N 1.05155656 0.50198649 1.90563455
N 1.30356781 -0.03647900 0.77193997
H 0.19140653 0.29244428 -1.99660682
H 0.92161174 -1.22691372 -1.41843281
H -0.85216219 -1.04974582 -1.44722145
H -1.82093919 0.67325065 0.55663176
