10

C 0.2578588 -0.62542737 -1.4359126
N 0.11404621 -0.06767874 -0.105285615
N -1.026595 0.41052532 0.36352748
C -0.66368324 0.7847677 1.5778719
N 0.6404453 0.5424758 1.8278896
N 1.1170272 9.870168e-05 0.746384
H -0.38249063 -1.5034978 -1.5366554
H 1.3045328 -0.90284884 -1.5548555
H -0.023552787 0.1250341 -2.1759336
H -1.3375887 1.236551 2.2929697
