10

N 0.18991468 -0.75574897 -0.83309307
C 1.47207352 0.04903389 -0.39428920
C 0.91783705 0.82772922 0.57251827
C -0.51643464 0.61793667 0.78893899
C -0.96621055 -0.32490896 -0.04282290
H 0.07389112 -0.60271861 -1.83620840
H 0.41173852 -1.74509778 -0.71552468
H 1.48852736 1.55225039 1.14256950
H -1.12811694 1.14503087 1.51294030
H -1.94321998 -0.76350660 -0.19502887
