10

N -0.051868156 0.07246814 1.125488
C 0.5017479 -0.88846844 -0.7908871
C -0.37234977 0.9919858 0.12577504
C 0.63128936 -1.1705948 0.5587746
C -0.03605302 0.40752727 -1.0580255
H -0.60213953 -0.9508909 1.1925826
H 0.1481715 0.33510956 2.082966
H -0.18530713 0.85312897 -2.0345986
H 0.807955 -1.5878934 -1.5592079
H -0.8414463 1.9376277 0.35713282
