10

N 0.09564494 -0.32730034 -1.0885746
C 1.0423882 0.8695503 -0.69439024
C 0.6906023 1.0018474 0.6121339
C -0.6995756 -0.73926383 0.071031354
C -0.33386958 0.06155038 1.0750432
H -1.4109015 -1.5512688 0.002144704
H -0.47187364 -0.008355637 -1.8755416
H 1.1301467 1.7461284 1.2666744
H -0.739843 0.016394412 2.0796864
H 0.69728124 -1.0692823 -1.4482074
