10

N -0.15726924 -0.749462 -0.84434587
C 1.0594889 -0.28623766 -0.41931146
C 0.83612645 0.59562796 0.6093928
C -0.5715899 0.6642491 0.81007767
C -1.1573685 -0.17729145 -0.102684766
H -0.29630777 -1.4125433 -1.5885444
H 1.9755459 -0.6216982 -0.8830828
H 1.5923333 1.1359668 1.1608677
H -1.086393 1.2669873 1.5447091
H -2.194566 -0.41559842 -0.28707802
