11

N -0.66909254 -1.9629903 -0.6657566
C 0.16705126 0.32839698 -1.0899522
C 0.2001354 0.90959907 1.1279451
C -0.2747198 -0.84476656 -0.23985173
C 0.36375618 1.5061945 -0.21391842
O -0.14920847 -0.48829758 1.06391
H 1.124139 1.0363163 1.7093047
H -0.5903496 1.451488 1.6675127
H -0.44656974 0.5079633 -1.9769639
H -0.90850556 -2.5849013 0.10423524
H 1.183364 0.14099778 -1.4864647
