10

N -0.37239435 0.065985404 0.18447341
C 1.0226706 -0.078700915 -0.0017320631
O -2.2353628 0.76822513 0.9519698
N 1.3096364 -0.97732306 -1.0125697
C -0.9071617 0.98606914 1.0183316
O 1.8525738 0.47884434 0.666603
H -0.98184055 -0.597457 -0.28958133
H 2.2863755 -0.9949962 -1.2675773
H -2.6437497 1.4156709 1.5357661
H 0.6692525 -1.0663178 -1.7856835
