14

C 2.122605 -0.16592579 -1.1971786
N 1.1216153 -0.54253817 -0.21444684
C -0.035534576 0.20468815 -0.11771805
O -0.1914959 1.2712239 -0.6867642
N -0.99988014 -0.370234 0.6894665
C -2.1561818 0.42608786 1.0627965
H 1.8455033 -0.45089522 -2.220783
H 3.0718634 -0.6413592 -0.9401516
H 2.2495737 0.9161548 -1.1667678
H 1.0205142 -1.5341704 -0.05395319
H -0.65444213 -0.99789023 1.4021691
H -2.9272952 -0.23449676 1.464903
H -1.9220663 1.198421 1.8066057
H -2.5447788 0.9209341 0.1718228
