14

C -0.75220054 -2.367055 -0.31409296
N 0.20643847 -0.47570428 1.254637
C -0.08867679 -0.15102638 0.060982265
O -0.56235635 -1.0495337 -0.81216526
N -0.030398302 1.088638 -0.5543828
C 0.6550196 2.196105 0.065180585
H 1.7319562 2.019134 0.1956242
H -1.4704555 -2.3718102 0.50979674
H -0.031156052 1.0444977 -1.5612506
H 0.51823527 3.086089 -0.5529769
H 0.2087779 2.4060671 1.0423311
H 0.19210866 -2.792536 0.03367215
H -1.1406382 -2.9372106 -1.1580808
H 0.56334573 0.30434522 1.7907252
