14

C -0.22521281 1.8499483 1.2363261
N -1.0582561 0.94859517 0.47737452
C 0.9109031 -1.7673128 -1.0948522
O -1.6909584 -0.7050779 -0.64841557
N 0.5995966 -0.6172483 -0.27133122
C -0.65097266 -0.12720391 -0.15374999
H 1.2606152 -1.476204 -2.0918489
H -0.8556551 2.6299663 1.6710145
H 0.29692727 1.3428934 2.0610025
H -2.14271 0.32924247 -0.019370021
H -0.00018975722 -2.3583562 -1.2008927
H 0.52672726 2.3491395 0.60761577
H 1.3521416 -0.023217993 0.036362197
H 1.6770436 -2.375164 -0.6092351
