14

C -1.9215983 0.19252273 0.784174
N -0.5578317 0.562868 1.1207875
C 0.50036395 0.31087333 0.27177468
O 0.18078434 -0.6363357 -0.6254606
N 1.6601733 0.8409109 0.28829953
C 1.2314204 -1.0337695 -1.4993364
H 0.80000633 -1.8123398 -2.130502
H -0.45158035 1.4164752 1.645081
H -1.9666127 -0.8670024 0.5274096
H 2.0809343 -1.4243692 -0.93107617
H 1.7469671 1.5140156 1.0436053
H 1.5752202 -0.19264774 -2.106329
H -2.3327487 0.768761 -0.05456906
H -2.5454981 0.3600375 1.6661416
