9

O 1.94706 -0.5858893 -0.6258183
C -0.6657593 -0.5101783 -0.26868582
N 0.12125511 -1.0055064 0.94070125
N -1.3467559 0.76650506 -0.19348134
N -0.7556999 1.6073146 0.49692568
C 0.73916304 -0.67120457 -0.10331104
H -1.2739002 -1.2376467 -0.8022129
H 2.5887787 -0.8108514 0.06719044
H -1.354142 2.447457 0.488692
