11

C 1.0401131 0.4674758 -0.7011441
C -0.6215536 -0.29029092 1.2685955
O -0.47778702 -1.2031708 -0.058907438
C -0.068472594 -0.35267675 -1.0103822
O -0.36220434 0.9588941 0.9867212
H -1.6628397 -0.5084856 1.5327079
H -0.53759784 0.72179586 -0.6948554
H 0.069228515 -0.8188097 1.9448179
H 1.3075354 1.266065 -1.3887752
H 1.6694626 0.31956413 0.16380966
H -0.35588446 -0.56036127 -2.042588
