10

O 0.97799973 -0.52669429 1.71964279
C -1.31748090 0.35764720 -0.36892679
N -1.04110178 -0.48314261 0.55458286
C 0.40046867 -0.66954364 0.47186736
C -0.07591950 0.82487989 -1.03658748
N 0.94609899 0.26448465 -0.51489993
H -2.33067879 0.67213102 -0.60127909
H 1.90737150 -0.31021136 1.57500523
H 0.53894933 -1.67759668 0.04426498
H -0.00570749 1.54804551 -1.84367002
