10

O 0.79284316 -1.0653586 1.5580348
C -0.04289016 1.1482326 -0.66364646
N 0.96355355 0.5092387 -0.2059562
C -1.2899426 0.37218574 -0.44418493
C 0.41838822 -0.76681226 0.26129073
N -1.0325818 -0.7330037 0.14615794
H 0.039607078 2.1264553 -1.1279255
H 0.75020665 -1.5242363 -0.46973386
H -2.2944245 0.6753133 -0.72451943
H 1.6952404 -0.7420145 1.6704829
