10

O -0.93796664 -0.41835085 -1.9375987
C 1.0058045 -0.3549288 0.88100153
N -0.49351352 1.0136528 -0.08820229
C 0.41558856 0.90621835 0.88892084
C -0.45397216 -0.19198571 -0.6952448
N 0.5018618 -1.0784032 -0.15025787
H 1.6975982 -0.7969385 1.5848329
H 0.5910715 1.7162951 1.5864375
H -0.8215076 -1.1339853 0.07350829
H -1.5049646 0.33842614 -2.143397
