13

C -0.3330668 0.9855184 -0.3271782
C -0.924694 -1.408041 0.31637657
N 1.175719 -0.33754176 1.0264885
O 2.181132 0.09724183 0.3273445
C 0.21042489 -0.43401492 0.07448194
O 0.5439074 1.8476404 -1.0001409
H -1.4793321 -1.5545046 -0.6171548
H -1.6307114 -1.0468504 1.0748405
H 1.4360977 -0.13533172 -0.6728334
H -1.1636001 0.8017153 -1.010821
H -0.54034406 -2.3820617 0.6306131
H 1.2605122 2.1114526 -0.40588546
H -0.73604476 1.4547775 0.58386856
