13

C -0.5473571 0.025276667 1.7071195
C 0.02710733 0.1690889 0.33131537
N 1.1401454 0.78685707 0.23282635
O 1.5593364 0.8774976 -1.1070042
C -0.7180343 -0.415983 -0.85631055
O 0.056465887 -1.3117523 -1.6110482
H 0.085599996 0.52823335 2.4398105
H -1.5570887 0.45090005 1.7487347
H -0.6330165 -1.0344794 1.9703233
H 2.4160717 1.3109365 -1.0277154
H -1.0974478 0.41482103 -1.4714979
H -1.5844222 -0.9803379 -0.49366567
H 0.8526399 -0.82105875 -1.8628881
