13

C -0.04851723 -1.50814647 0.62912440
C -0.04757015 0.00209980 0.43046267
N 1.31815209 0.50089336 0.74235299
O 1.35667288 1.70430423 0.87954421
C -0.35635768 0.42277368 -1.01653897
O -0.58544045 1.79684321 -1.15242730
H -0.76809493 0.51165027 1.08379603
H 0.09040324 2.26114365 -0.63986328
H 0.21992804 -1.76475846 1.65826502
H 0.46156914 0.06450938 -1.66457080
H -1.27380031 -0.08761077 -1.32981053
H -1.04134138 -1.91630606 0.41887816
H 0.67439676 -1.98739601 -0.03921290
