10

N -1.02274 -0.16026135 -0.4866562
C -0.014781787 -0.24384521 -1.3376602
O 1.1343213 0.1320879 -0.90421563
C 0.968507 0.5271237 0.5486371
C -0.36763978 -0.0067003225 0.833666
N -0.57649297 -0.49318326 1.9610503
H 0.8173314 -0.14434862 1.8473442
H -0.09597408 -0.6375961 -2.346276
H -1.9202634 -0.59009016 -0.6537534
H 1.0777323 1.6168133 0.5378638
