10

N -0.44089589 -0.84970670 0.38990609
C -1.38601507 -0.45844109 -0.43881442
O -1.03490077 0.61828252 -1.05858983
C 0.23281753 0.98105470 -0.61881699
C 0.67989692 0.05850623 0.33906392
N 1.69682538 -0.18260681 1.10120083
H -2.34336764 -0.92112446 -0.62476134
H -0.45015199 -1.65555938 0.99812256
H 0.63738684 1.88154164 -1.04958914
H 2.40840493 0.52805380 0.96227838
