11

C 0.20486085 0.05158969 -1.7824957
C 0.28797108 0.40574482 1.8698632
N -1.5376024 -0.017395386 0.12794408
C -0.4576093 -0.14778614 -0.47967824
C -0.33807266 -0.5471624 0.91356826
O 0.36290243 1.5939724 1.6576177
H 0.6517209 -0.88841957 -2.1158767
H -0.3723801 -1.5955884 1.2047781
H -0.5083323 0.4102206 -2.5283382
H 1.0062573 0.78469455 -1.6601249
H 0.70028436 -0.0498701 2.792743
