10

O -0.059861705 -0.49691048 2.3103158
C 0.02128152 -0.2016274 1.1567574
C 0.29392725 1.053942 -0.7019395
O 0.20596646 -0.27479386 -1.1491157
C -0.2935278 -1.0362228 -0.07232552
O 0.42201155 1.0148011 0.7132608
H -0.6081003 1.6303416 -0.9492997
H 0.21471535 -2.0042973 -0.036753073
H 1.1809932 1.5184642 -1.133427
H -1.3774054 -1.2036974 -0.13747352
