11

O 1.7499233 -0.9215023 -1.8357767
C 0.730756 -0.2695084 -1.9176756
N -0.030436547 0.08590628 -0.85312873
C 0.34228992 -0.32159728 0.4901311
C -0.5769267 0.2537259 1.4724135
C -1.3444217 0.72626984 2.2651618
H 0.3191525 0.101013355 -2.8762958
H -0.87328565 0.6231107 -0.9890408
H 0.33059758 -1.4167581 0.56728
H 1.3700706 -0.0012881603 0.6945594
H -2.0177195 1.140628 2.9823716
