11

O 2.4006498 0.1643376 -1.445234
C -0.022792831 0.70239466 -0.09981389
N 0.55730695 -0.5040518 -0.26182672
C -1.7122217 -0.44558573 1.0838629
C -1.215241 0.77957726 0.5997429
C 1.7572784 -0.71033955 -0.9269706
H -1.6523468 1.7728437 0.715931
H 0.50723314 1.5440928 -0.53552705
H -2.6663423 -0.28758097 1.6147963
H -0.0047201295 -1.2420114 0.18693951
H 2.0511963 -1.7736765 -0.9319005
