9

O -1.1300029 -1.3798776 -0.7013668
C -0.42761222 -0.23541716 -0.49823108
N -0.11030665 -0.06264609 0.8250498
N -0.15217088 0.5734789 -1.4470013
N 1.0967729 1.6311812 0.4948811
C 0.951405 0.66833985 1.2780224
H 1.4233909 0.48176783 2.2421007
H -1.2091992 -1.8466136 0.14365995
H -0.44227704 0.16978653 -2.3371148
