9

O 1.6807626 0.9293211 0.60613024
C 0.56497735 0.30740377 0.1946226
N 0.4310631 -0.24662521 -0.99877083
N -0.809967 -0.72744226 -0.9561524
N -1.4814981 -0.5314744 0.15530533
C -0.62339735 0.13666889 0.92623335
H 2.3251264 0.89217895 -0.11198873
H -1.2121189 -1.216538 -1.740658
H -0.87494826 0.45650715 1.9252782
