10

N -0.31809887 -1.0026234 -1.5100124
C -0.07424254 -0.44167572 -0.26794994
N -0.035893366 -1.1726258 0.8157431
O 0.31031784 -0.30301803 1.8415475
C 0.45220152 0.92212963 1.335778
C 0.22689126 0.92892027 0.0027653668
H -0.8859374 -0.42983845 -2.1178617
H -0.6713713 -1.9486794 -1.4508644
H 0.719662 1.6940588 2.0423286
H 0.27647072 1.7533519 -0.6914739
