11

N 1.110101 -0.6901708 -0.14712341
C -0.7152426 0.73661745 -0.05322378
C 0.23312116 -1.4884377 0.41874787
C 0.7426958 0.69307125 -0.4915656
C -1.0067765 -0.6252688 0.5679872
O -1.4575821 1.6758629 -0.1876638
H -1.2576772 -0.5156501 1.6317948
H 1.3398536 1.4302366 0.05810641
H 2.0498571 -1.0201045 -0.34321675
H -1.8842875 -1.0944672 0.108780734
H 0.8459373 0.89831084 -1.5626237
