11

N 1.3488772 0.5703434 1.8373979
C 0.6408735 0.26748288 0.8352366
C -0.7692612 -0.17456536 0.8546326
C -1.1579604 -0.3954634 -0.3957474
C -0.012896461 -0.10827971 -1.3240014
O 1.0569594 0.29439425 -0.46966517
H 2.288307 0.8417004 1.551869
H -1.3309146 -0.2798675 1.7739222
H -2.1322153 -0.72896916 -0.73970395
H -0.2309576 0.7027029 -2.0281768
H 0.29918855 -0.98947865 -1.895763
