11

N -1.1920102 -0.51499236 2.2190342
C 0.8203772 -0.6634628 0.669434
C 0.9432656 -0.21839549 -0.72030544
C 0.03086813 0.44464532 -1.4276205
C -0.22599617 -0.5243002 1.4644747
O -1.1680665 0.8061706 -0.88943744
H 0.20540737 0.7319957 -2.4625611
H -1.703175 1.2473804 -1.5528964
H -1.2638079 0.31239498 2.809432
H 1.6795079 -1.1585783 1.1143014
H 1.8736297 -0.4628578 -1.2238553
