11

N 2.212457 -0.35085177 0.4572215
C -1.3563126 0.52600855 0.35554913
C 0.2506182 -0.44262522 -1.0435191
C 0.99020493 -0.2242297 0.16763306
C -1.0455062 -0.04665759 -0.8991201
O 0.025768505 0.26876715 1.1424375
H -1.798785 -0.13068134 -1.6764381
H 2.3969111 -0.1646206 1.4381458
H 0.7209436 -0.86489767 -1.9201434
H -0.24274044 1.2757115 0.988706
H -2.1535592 0.15407678 0.9895277
