11

C 0.47656485 -0.89601046 -1.4047393
C 0.087790355 0.5516813 1.5233976
N -0.18662542 -0.17676915 -2.257033
C -0.7384106 0.23130997 -0.95896864
C 0.1464079 0.25045285 0.07482088
O 1.3429505 -0.2682475 -0.49197102
H -0.8979963 0.94558406 1.7826083
H 0.28089866 -0.34695783 2.1179178
H 0.8456903 1.2973876 1.7863786
H -1.8104868 0.39460617 -0.9032538
H 0.4532165 -1.9830371 -1.269157
