11

C -0.119474694 -0.1501948 0.05945729
C 1.0016623 1.6642985 -0.22854388
N 1.2928828 0.96686053 -1.2700713
C 0.57405055 -0.21082245 -1.0968329
C -1.0382568 -1.0633744 0.78510106
O 0.1529714 1.0669023 0.630076
H -1.1512442 -1.9899783 0.21593463
H -2.0284927 -0.61389047 0.9129871
H -0.64835626 -1.3125485 1.7762086
H 0.61549205 -1.0113263 -1.8223825
H 1.3487655 2.6540737 0.03806579
