11

C -0.5333166 -1.0797477 -1.4101247
C -0.01653292 -0.25052288 -0.28834555
N 1.1592675 -0.25862378 0.2473773
C 1.0925666 0.69440585 1.2532333
C -0.14161777 1.2348902 1.2663091
O -0.869461 0.6385196 0.2783756
H -1.4268718 -1.6331842 -1.1064372
H 0.24165729 -1.7869871 -1.7107365
H -0.8004415 -0.4576984 -2.2716455
H 1.939889 0.91274846 1.8877851
H -0.64513904 1.9861997 1.8542091
