11

C 1.7797352 1.4360125 0.103738815
C -0.41934243 0.44128126 0.06617441
C -1.4262632 -0.66592425 -0.032716636
O 1.6159196 -0.8510733 -0.17061009
C 0.9024847 0.29051012 -0.0039153886
N 2.4603918 2.3605182 0.19515197
H 1.0075738 -1.5990262 -0.19535722
H -0.79185915 1.4507061 0.21386753
H -1.9736149 -0.78194505 0.90924495
H -2.167958 -0.44094247 -0.8071913
H -0.98706776 -1.6401169 -0.27838707
