11

N 0.7371694 1.7294967 2.3449805
C 0.25074828 1.3196989 1.3820744
C -0.34593928 0.7811315 0.14532374
C 0.57975847 -0.11676412 -0.70118046
C -0.40085056 -1.2304875 -0.31409857
O -1.2416873 -0.30076292 0.40002784
H -0.83519757 1.6023606 -0.38828918
H 0.592022 0.1456548 -1.7596442
H 1.5986662 -0.22190367 -0.32887584
H -0.93689233 -1.7100621 -1.1364335
H 0.0022029106 -1.9983623 0.3561149
