11

N -0.65281403 -2.6455462 0.4452738
C 0.15426399 -0.15346222 0.7737453
C 1.2053502 0.3974611 -1.0414971
C -0.29101393 -1.5563526 0.5837027
C -0.61948866 0.81961817 -0.1378124
O 1.4620327 0.06750354 0.31664407
H -1.5060261 0.43543896 -0.63664186
H 0.22567014 1.2549772 -0.97186154
H 0.08281368 0.07684558 1.843061
H -0.78164685 1.7962832 0.32895622
H 0.720859 -0.49276674 -1.5035702
