11

N 1.1092547 -0.9802215 1.0410862
C -0.0874769 -1.2003924 0.29302645
C -0.5262181 1.1019535 -0.010807416
O -0.9890656 -0.143851 0.44381616
C 2.079033 -0.71616626 1.6480207
C -0.23140107 1.0912668 -1.4606596
N 0.007446403 1.0443727 -2.588532
H 0.1908936 -1.346531 -0.75845563
H -0.5972422 -2.085098 0.6734737
H 0.37462395 1.4208552 0.53048134
H -1.3298475 1.8138121 0.18855014
