10

N 0.9479149 -1.2218413 0.9348846
C -0.9102674 0.45175028 0.53394705
N -0.18493453 1.1038648 -1.297805
N -1.1625801 1.3135412 -0.44839883
N 0.697879 0.16756156 -0.9741218
C 0.2587619 -0.26481602 0.20485748
H 0.35860786 -1.8821013 1.4197271
H -1.5494792 0.39178452 1.4027536
H -0.1044663 1.6301374 -2.1523952
H 1.648564 -1.6898811 0.37655097
