10

N 0.86863835 1.55769567 0.31160229
C -0.15604712 -0.39272281 0.02167845
N 0.25764710 -0.00633716 -1.18220259
N 0.86082229 1.14950610 -0.93522010
N -0.79185006 -1.60935540 0.21999280
C 0.22439367 0.58963842 0.95903001
H 0.07494974 0.63556096 2.02794070
H 1.29488981 1.68411733 -1.66975302
H -1.09462787 -2.02314182 -0.65110608
H -1.53881604 -1.58496164 0.89803785
