10

C -0.16227949 -1.0254592 0.7461614
C 0.76129615 0.47963047 -0.65305877
N 1.5891266 -0.5592126 -0.43817106
N 1.0946829 -1.3109058 0.52286536
C -0.86849755 -0.092655726 -0.22449692
C -0.26960927 1.017766 0.2892101
H 0.95267206 1.0983084 -1.5266305
H -0.69190264 -1.3981107 1.6145258
H -0.5946642 2.0439289 0.41741642
H -1.8108249 -0.25328964 -0.7478217
