10

C 0.27012418 0.52626696 -0.88779821
C -0.91570407 0.09319045 -0.07408431
N 1.04760324 -0.68308988 -1.25169771
N 0.89170936 -1.49031056 -0.33112467
C 0.00868649 -0.83526840 0.66311323
C 0.25482876 0.64481145 0.61063846
H 0.26476055 1.37258945 -1.56175176
H -1.97375719 0.30787646 -0.06409667
H -0.26253854 -1.36803412 1.56548733
H 0.41428727 1.43196811 1.33131473
