11

O -2.29423186 -1.12745841 0.73391543
C -1.85849478 -0.11780943 0.00013677
N 0.32474087 1.01453368 1.43584684
C 0.99847105 0.79434917 0.38125708
O 1.26851674 -0.27847642 -1.69748797
C 0.40800486 -0.03212762 -0.69296666
N -0.77920190 -0.46955526 -0.71107758
H 0.82633510 1.64099875 2.06516023
H 1.99678880 1.18440694 0.15529003
H 0.78235036 -0.72760743 -2.40357935
H -1.67327902 -1.88125415 0.73350485
