12

C -0.34900892 -1.1045026 0.9803898
C -0.25958994 -0.6272475 -0.4674962
N -0.2653972 0.820864 -0.58484507
C 0.8753094 1.5508487 -0.49490887
O 1.9922796 1.0810965 -0.40778655
H -0.34013292 -2.1978452 1.0244745
H -1.2700394 -0.75069046 1.4570805
H 0.505614 -0.72705877 1.5503458
H -1.0945153 -1.017487 -1.0597674
H 0.6690269 -0.979729 -0.9253869
H -1.1446464 1.3124958 -0.5420183
H 0.6811001 2.6392553 -0.53008145
