9

N 1.1091281 -0.9805859 -2.185238
C 0.8948122 -0.51162946 -1.1519428
C 0.61577487 0.051158734 0.15570226
C -0.7087347 0.69260037 0.37988365
N -0.39326382 -0.57925946 1.0038984
H 1.4910804 0.42348683 0.6815407
H -0.7642831 1.5430874 1.054814
H -1.4017006 0.71240515 -0.45705587
H -0.84281355 -1.3512634 0.51839787
