9

N -1.2349621 0.6165553 -0.6701047
C -0.45404303 0.3961194 0.561139
C -0.27897394 -0.48670208 -0.6380495
C 0.94287986 0.2772798 0.83648473
N 1.678639 -0.67565733 0.88096786
H -0.9103224 1.3980304 -1.2418109
H 0.7751446 -1.3981029 0.16151354
H -1.0648093 0.09642169 1.4118999
H 0.5464475 -0.22394405 -1.3020401
