9

N 0.35938395 -0.27187162 -1.48719695
C 0.45665177 -1.33144836 -0.57155974
C 0.85135312 0.13757544 -0.15144829
C -0.11958606 0.65651062 0.65596065
N -0.98351874 1.19945445 1.31053708
H 1.88801065 0.42167521 -0.01638467
H -1.34784191 0.74589597 2.14369067
H -0.57419738 0.09810029 -1.70117158
H -0.53025560 -1.65589173 -0.18242695
