9

N 0.13477254 1.1329514 1.679811
C 0.37673283 0.3614726 0.7765316
C -0.5940466 -1.0802823 -0.8877302
C 0.7099958 -0.421923 -0.29077947
N 0.04586644 -0.022778666 -1.5531269
H -0.42558953 0.82718986 2.470441
H -0.3820926 0.9092248 -1.503538
H 1.6607218 -0.94067365 -0.31590965
H -1.5263605 -0.7651809 -0.37569907
