11

C -0.7348415 -0.4486474 -0.07988393
C -0.62038994 -0.40526754 -1.5599341
C 0.15366364 0.6556188 0.7624862
C -1.2109874 -0.6802398 1.0688452
O -0.009662042 1.8159996 0.47773722
N 1.2256213 0.16939025 1.4394932
H 1.8239427 0.8439167 1.8905069
H 0.39952308 -0.6233062 -1.8919036
H 1.1780216 -0.76680505 1.8072267
H -0.90858775 0.58695894 -1.9218881
H -1.2963036 -1.1476184 -1.9926853
