12

O -1.0755317 -1.0379514 0.47922894
C 0.59123385 -0.28010792 -1.0296379
C 0.12641194 0.9216529 1.1106961
O -0.37396258 0.4775883 -1.7162
C 0.19018383 -0.43246323 0.4361235
O -0.8797534 1.295842 1.663102
H 1.0472888 1.5359639 1.0894439
H 0.7163959 -1.2835784 -1.46041
H -1.2263652 0.07257591 -1.498781
H -1.6087998 -0.48589754 1.0751824
H 1.5460689 0.25178832 -1.1144422
H 0.94682926 -1.0354131 0.9656942
