12

O -0.72561586 1.5205175 0.29406285
C -0.10367148 -0.9397226 -0.03425598
C -0.7066233 0.5572226 -0.70506215
O 1.6030866 0.10582735 1.0216744
C 1.1957313 -0.32709566 -0.10895571
O -0.51472616 -0.9782411 1.2056549
H -1.0161372 1.0556811 1.0928818
H -0.21989882 0.9313185 -1.6038759
H 0.7706645 -0.23269893 1.5775329
H -0.37400097 -1.6927662 -0.7737793
H 1.8037827 -0.19735372 -1.0008262
H -1.7125913 0.19731101 -0.9650518
