11

O -1.85761596 1.13253467 1.04527458
C -0.93271274 0.58817444 0.48504795
N -0.50595402 0.84432644 -0.79942252
C 0.59248892 0.03945093 -1.14984672
C 0.93527743 -0.76472602 -0.14215648
C 0.00458463 -0.50360058 1.01103025
H -0.93929667 1.53254124 -1.39400107
H 1.03083478 0.13868828 -2.13364469
H -0.58342328 -1.37880519 1.30750613
H 1.74295249 -1.48335393 -0.14238795
H 0.51286425 -0.14522994 1.91260076
