11

O 1.68929368 0.75314469 1.87268784
C 0.97716911 0.41028616 0.96984177
C -0.93425884 -0.09479066 -0.24539739
N -0.32776237 0.78483366 0.72974142
C 0.32650455 -0.55783543 -0.98531366
O 1.37054293 -0.43857019 -0.02190735
H 0.55207411 0.09484357 -1.83361824
H 0.27750299 -1.59395373 -1.32437222
H -0.84234905 1.14481920 1.51811131
H -1.62707405 0.43191498 -0.90603042
H -1.46164291 -0.93469228 0.22625695
