12

C 1.4006041 -0.29262495 0.8825574
C 0.33547103 -0.5052767 -0.18589577
C -0.58951336 0.695851 -0.31986952
O -0.21916926 1.8363168 -0.1154994
N -1.8666785 0.39774764 -0.7021325
H 2.1143248 -1.1212426 0.8882691
H 1.938738 0.640193 0.6971042
H 0.9497671 -0.22537495 1.8779508
H -0.24741182 -1.4136305 0.015486383
H 0.8105415 -0.64573485 -1.1654482
H -2.14025 -0.532991 -0.9644764
H -2.4864242 1.1667669 -0.9080458
