12

C -0.31078854 -1.0187616 0.15303224
C 0.13518947 1.5513166 0.017315254
C -0.6923032 0.3672842 0.44341782
O -0.13465853 -0.47909898 1.4437093
N 0.89025426 -1.2839929 -0.5765753
H -1.7557882 0.5644456 0.5895565
H -0.29645082 2.0114572 -0.8779237
H 0.15598297 2.3041854 0.81102455
H -1.1034101 -1.7743742 0.111149624
H 1.25518 -2.2030334 -0.34243527
H 0.69838446 -1.2776203 -1.5747131
H 1.1584084 1.2381918 -0.19755773
