10

O -0.6637134 1.1333519 1.620106
C -0.3456899 0.38147718 0.5439327
N 1.3326576 -0.4977759 -0.8364385
C -1.2609435 -0.7991182 -1.3136178
C 1.0488336 0.26936185 0.14869693
N -1.199294 -0.240439 -0.18869087
H -1.6252079 1.2188323 1.663034
H -1.3710172 -1.8909956 -1.2804506
H 1.7623414 0.8738475 0.71142775
H 2.322033 -0.4485418 -1.0679996
