10

O 0.047421433 1.5530044 -1.0923574
C 0.04461672 0.4776974 -0.25727528
N -0.98977655 -1.6506555 0.055326313
C 1.3747302 0.29206672 1.8422806
C -0.92834955 -0.56496656 -0.6064535
N 0.82487816 0.3691853 0.73473096
H 0.56878024 2.259673 -0.6937821
H -1.7318482 -2.2405267 -0.3192003
H 2.3557825 -0.20365968 1.7907287
H -1.5662351 -0.29181865 -1.4539981
