10

O -0.32040644 -2.015661 -0.75945574
C 1.2121712 -0.4715401 0.3752129
N -0.33199313 1.2913878 0.1301349
C 0.9049505 0.84751505 0.61315185
C 0.004875121 -0.8431738 -0.21596386
N -0.9696211 0.115412734 -0.26702318
H 1.4975153 1.605755 1.1189957
H -0.9157423 1.85233 0.7411447
H 0.46918303 -2.5655293 -0.64162207
H -1.550932 0.1835035 -1.0945753
