10

O 1.2416987 0.5086769 -1.7514244
C 0.47326848 0.08396683 -0.7362566
N -0.06292208 -1.0919867 -0.6073265
C -0.749779 -1.0213331 0.5923785
C -0.6127506 0.20389119 1.1644406
N 0.19230808 0.9219834 0.28535336
H 1.3028404 -0.24094832 -2.361293
H -1.3053479 -1.872723 0.96375394
H -0.98942316 0.6360452 2.0780423
H 0.51010734 1.8724276 0.37233174
