10

C -0.40925169 0.68193866 0.47004191
C -0.34457153 0.06872633 -0.85560521
N 0.63970873 -1.47925448 0.71523817
N 1.56213235 -0.71832566 0.40865490
C -0.61979944 -0.80075690 0.33831925
C 0.93227658 0.48798889 -0.17921134
H -0.94384687 1.50832464 0.91305298
H -0.81615465 0.25136823 -1.80974212
H -1.56322020 -1.29774419 0.52175890
H 1.56272684 1.29773445 -0.52250724
