10

C -0.22355239 0.97448796 -0.36800265
C -0.6293949 -0.03866102 -1.2355962
N -0.4576655 -1.3343754 -0.99039066
N 0.13078095 -1.7115681 0.13734005
C 0.54007024 -0.79008555 1.0033891
C 0.3896444 0.58108485 0.8047069
H -0.38588417 2.0191143 -0.61519074
H -1.1174335 0.18773295 -2.1811864
H 1.0121012 -1.1822304 1.9024265
H 0.7413338 1.2945004 1.5425043
