11

N -0.100322776 1.3858501 -0.38477644
C 0.71516186 1.2158399 0.6436374
C -0.08487257 -0.8725122 0.36141965
N 0.840918 -0.042289723 1.1052176
C -0.4808792 0.0943204 -0.64328206
N -0.8482928 -0.5745256 -1.7164489
H 1.2912643 2.0301728 1.0708563
H -0.89549905 -1.2363898 1.0003953
H 1.3425218 -0.30088255 1.9377713
H -0.36850277 -1.5517815 -0.9282666
H -1.4114968 -0.14780165 -2.4465237
