11

N -0.45774375 -0.22106285 1.29842580
C 0.75027620 -0.28226577 0.56186286
C -1.36809688 0.10641191 0.44345769
N -0.98459927 0.23097306 -0.86173345
C 0.46839304 0.11789857 -0.88712632
N 1.89639873 -0.60979859 0.97968251
H 0.94974316 1.07210349 -1.13075025
H 1.83453199 -0.83737497 1.97095657
H -2.40958164 0.25229941 0.71568077
H -1.49173561 0.81887895 -1.50296397
H 0.81241428 -0.64806319 -1.58749177
