10

O 1.8324497 -0.16284436 0.7765799
C 1.1353614 -0.8114338 0.032983482
C -0.11769635 -0.26683137 -0.5612483
C -1.0597045 0.38801104 0.39394495
N -0.29183373 1.1807234 -0.53807783
H 1.394967 -1.8520614 -0.24744253
H -0.5090352 -0.78270096 -1.434076
H -2.1257696 0.32761517 0.19399846
H -0.77248996 0.3966488 1.4441851
H 0.51375115 1.582873 -0.060847323
