11

C 0.18281998 0.1921246 0.4310247
C -1.2488196 0.6797696 -1.217693
C -0.40551662 -0.30184957 -0.80877185
C 1.1954539 -0.6831514 1.1361103
N -1.745587 1.7936668 -1.0174136
O -0.12456516 1.2872429 0.890452
H -0.20780273 -1.2432542 -1.292442
H 0.84807295 -0.8685771 2.1564398
H 2.137736 -0.13268054 1.2010045
H 1.3650777 -1.6357328 0.6278903
H -1.9968694 0.91244173 -2.106601
