11

C 1.68995561 -0.83448953 -0.15866345
C 0.37093172 -0.18837334 -0.01471511
C -0.54404378 0.47955013 -0.73486471
C -1.31320553 0.53834225 0.52234759
N -2.35883048 0.93308463 1.07238767
O -0.29020341 -0.17465424 1.20999449
H 1.61721923 -1.89393305 0.10630653
H -0.67006606 0.82180325 -1.75017587
H 2.04617195 -0.74109027 -1.18661489
H -2.95779559 1.42585609 0.41413420
H 2.40986567 -0.36609611 0.51986389
