11

C -1.449666 -0.03479403 -0.4294484
C 1.6160607 -0.18016689 0.96611834
C 0.3448148 -0.04803995 0.2282243
C -0.13617393 0.39674982 -0.943411
N -2.6702728 -0.11837883 -0.663606
O -0.8552962 -0.4793636 0.78580385
H 2.441798 0.21274187 0.36939538
H 0.24362238 0.8569586 -1.8422092
H 1.8043385 -1.2328465 1.1992221
H -2.8958602 0.25830904 -1.5812645
H 1.5566344 0.36883047 1.9111753
