11

C 1.0104727 -0.809461 -1.1425233
C 0.2168661 -0.16396382 -0.059797127
C -0.88281196 0.6309733 -0.053003535
C -1.0915487 0.882077 1.3311877
N -0.20221172 0.29400688 2.076835
O 0.6297254 -0.37174577 1.2019788
H 1.0076104 -1.8982097 -1.0340858
H 0.5843147 -0.5536617 -2.113931
H 2.0506852 -0.4711876 -1.1163336
H -1.4575942 0.9853622 -0.8953076
H -1.8655086 1.47581 1.8049808
