12

N 0.51484215 1.09381270 0.09976819
C 1.55321028 0.32675557 -0.54238573
N 0.08766108 0.28338300 1.31397309
C 0.07219712 -0.95690464 0.45261785
C 1.32998062 -0.96869472 -0.34043645
C -0.70723138 0.27117682 0.14558449
N -2.05156182 0.61249903 0.06136485
H 2.32981903 0.85721617 -1.07484141
H 1.89602165 -1.83456659 -0.65239298
H -0.40113430 -1.83343730 0.88737428
H -2.25364030 1.47774204 0.54899237
H -2.37016447 0.67101767 -0.89961841
