12

N 0.6241327 1.0392238 0.043756574
C 1.500209 0.19088347 -0.7255
N -1.9620312 0.79927105 0.31531858
C -0.6556694 0.33301324 0.23261064
C 0.035609376 -0.9676028 0.43384168
C 1.1816305 -1.0816975 -0.50674933
N 0.27208155 0.24989355 1.295392
H -2.0210931 1.6704708 0.8298907
H -0.46242383 -1.8041723 0.91703904
H 1.6215074 -1.9905639 -0.8913577
H 2.253442 0.65654314 -1.3450319
H -2.387395 0.9047372 -0.5992105
