11

O 0.18635385 -1.9079614 1.1299384
C 0.027066821 -0.76509404 0.4147512
C -0.87474275 -0.3680668 -0.53782636
C -0.5004759 0.96404505 -0.90957886
C 0.5967097 1.3148599 -0.17621033
N 0.91502213 0.24188471 0.6376463
H -0.50766206 -2.5223224 0.8646946
H -1.6995109 -0.9491946 -0.9260967
H -1.0022885 1.5816414 -1.6420684
H 1.1836565 2.2196503 -0.1519787
H 1.6758711 0.19055821 1.296729
