11

O 1.48078668 1.39977944 -0.77288108
C -0.63183964 -1.29974703 -0.34149020
C -0.04685384 -0.52369819 -1.28931706
C 0.29679515 0.71898158 -0.49343008
C 0.06073863 0.42727032 0.96054906
N -0.54920598 -0.71895883 0.97673190
H -1.08973210 -2.28129509 -0.39277940
H -0.92104872 -1.14083348 1.81938144
H -0.59337356 1.36119533 -0.70326791
H 1.78554674 1.02720201 -1.60939089
H 0.20818662 1.03010428 1.84589436
