17

C -2.4815974 -0.92778 0.5957456
N -1.3235835 -0.4226044 -0.120018475
C -0.2652066 0.06758843 0.6265575
O -0.34995908 0.2121173 1.8386327
N 0.85569966 0.42088127 -0.09205819
C 2.068712 0.7623089 0.6246025
C 0.9335166 0.34877363 -1.5372566
H -2.2661164 -1.8327283 1.1787009
H -2.8321588 -0.16064422 1.2908925
H -3.2745214 -1.1417644 -0.12340107
H -1.0888433 -0.9315894 -0.9594416
H 2.8565292 0.0141407065 0.46105042
H 1.8351705 0.80679977 1.6888689
H 2.4485497 1.7378261 0.2988827
H -0.022971626 0.63590896 -1.9855814
H 1.6901944 1.0595225 -1.8848437
H 1.2165865 -0.64875674 -1.9013327
