17

C 0.09047304 -2.29133084 0.86325655
N -0.68070900 1.03968489 -0.10797340
C -1.67807445 1.39648057 0.87936688
O -0.53928408 -1.01585455 0.78926915
N 1.09937426 -0.42992905 -0.69111658
C 0.03659518 -0.13728274 -0.04601501
C 1.62636752 0.55637678 -1.60941163
H -0.49859677 -2.86196676 1.58435016
H -2.39736286 0.58212326 0.98618543
H -2.21206880 2.28182885 0.52369523
H 0.08551253 -2.78752511 -0.11107083
H 1.12539072 -2.19649690 1.20093040
H -1.25065302 1.60885423 1.86744905
H 1.95130603 1.48126773 -1.10397776
H -0.17733626 1.80318404 -0.52353841
H 0.91124708 0.83397113 -2.39904561
H 2.50781933 0.13661459 -2.10235364
