17

C 0.030138845 -0.14596628 -0.009414713
N 1.1420684 -0.63605654 -0.40276122
C 1.8795134 0.08757378 -1.4158362
O -0.73413867 -0.7805873 0.89300483
N -0.5621519 1.0262573 -0.4321445
C -0.23875064 -2.0409431 1.334595
C -1.6517835 1.6517047 0.28785574
H 0.061386872 1.6471276 -0.9166327
H -2.4495106 0.92452615 0.45158315
H 0.7428823 -1.932239 1.8021973
H 2.77984 -0.48171234 -1.6637772
H -2.0484774 2.4639082 -0.32732984
H -1.3497304 2.0552742 1.2625319
H 1.3102059 0.22162192 -2.3485193
H -0.9722151 -2.4008105 2.0592535
H 2.2125394 1.0820535 -1.0744047
H -0.1518175 -2.7417326 0.49979928
