11

N -0.6960633 0.40622476 1.9830761
C 0.02121185 -0.26292533 1.0158889
O 0.7395456 -1.2137122 1.2471316
N -0.12588458 0.28282094 -0.25158387
C 0.52449 -0.22997195 -1.3640424
N 0.40377483 0.3518562 -2.48502
H -0.7293161 -0.08798262 2.8631873
H -1.5507141 0.87554395 1.7228733
H -0.6191893 1.1524794 -0.39659908
H 1.0992717 -1.1286303 -1.1397674
H 0.9328736 -0.14570276 -3.1951442
