10

O 0.06351494 -1.4487118 1.6636523
C 0.038553134 -0.47755197 0.7383387
N 0.1359543 0.8022423 0.952658
C 0.055411194 1.3643068 -0.31104502
C -0.089602694 0.40680146 -1.2651247
N -0.09989095 -0.7997367 -0.5676249
H 0.16734956 -0.997753 2.513141
H 0.10725408 2.4352195 -0.44686252
H -0.185599 0.4458929 -2.33855
H -0.19294454 -1.7307097 -0.9385827
