10

O -1.9746696 0.4701516 1.301037
C 0.78494686 -0.839939 -0.34732237
N -0.2267829 1.107025 -0.12565738
C 0.8451749 0.4495884 -0.7241968
C -0.9808236 0.23408425 0.6436208
N -0.32513586 -0.9758033 0.48220953
H 1.5492035 0.95873266 -1.3631902
H -0.45836982 2.0821204 -0.20806028
H -0.6406751 -1.8159983 0.93463576
H 1.4271317 -1.6699613 -0.59307593
