9

N 0.058002133 -1.0860455 0.4832302
C 0.07025815 0.87986624 -0.6820757
C 0.4631093 -0.028872661 1.2040298
N 0.5235476 1.1390374 0.5522864
C -0.2612337 -0.47321108 -0.79421955
H -1.1129712 -0.85184276 0.084396794
H -0.4411376 -1.0978321 -1.6601219
H -0.0069088354 1.6477429 -1.4420568
H 0.70733416 -0.12884228 2.2545307
