9

N 0.0091499 1.0339875 -0.9370747
C -0.091242686 0.98537296 0.34247145
C 0.1282309 -0.33416983 -1.3181275
N 0.10827414 -1.2077478 -0.3840846
C -0.04042974 -0.4303273 0.8340237
H 0.22924235 -0.58332056 -2.3699038
H 0.8027612 -0.6138315 1.5099584
H -0.95002 -0.72708464 1.3703622
H -0.19596608 1.8771211 0.95237505
