9

N -0.12023277 -0.8473077 0.45161211
C 0.35792035 0.37837917 0.85991883
C 0.27565202 1.1780912 -0.24531321
N -0.23627992 0.4807064 -1.3132842
C -0.46141487 -0.7274471 -0.86130804
H -0.20044143 -1.67809 1.0139666
H 0.6987132 0.5506621 1.8697699
H 0.5526999 2.218574 -0.34404808
H -0.8666164 -1.5535686 -1.431314
