12

O 0.7521233 -1.0605147 -1.3682097
N 0.17824158 1.2727438 0.48349392
C -0.18205862 -0.6381664 -0.30810124
C 0.45023346 -0.08630166 0.98204374
N -0.57596093 -1.8716621 -0.7225731
C -0.7622776 0.765446 -0.5390647
H 1.4738321 -1.5450256 -0.9297651
H -0.1402744 -0.3942495 1.855047
H -1.8220581 0.77928394 -0.25367817
H -0.6406767 1.1939235 -1.5383934
H -0.2391324 1.8938811 1.1665936
H 1.5080082 -0.3093586 1.172607
