11

C -0.98910546 0.89207166 -0.117490046
C 0.058673494 -0.19618186 -0.17189115
C 0.67526394 -0.7371584 1.0461433
O -0.31374228 -1.4652808 0.336936
C 0.83761764 -0.24563268 -1.4093282
N 1.4465619 -0.24762093 -2.3911605
H -1.7187686 0.760877 -0.92145985
H -1.5126598 0.8467436 0.8418385
H -0.5264081 1.8772146 -0.22568312
H 1.6811996 -1.152595 1.006221
H 0.3613677 -0.33243713 2.0058742
