11

C 1.4470956 0.32110566 0.57925606
C 0.12325618 -0.08985294 0.09520427
C -0.5773434 0.96755445 -0.7270867
O -0.6296707 -0.5957801 1.2282485
C -0.09985664 -1.5305485 -0.17385368
N 2.5044498 0.6548434 0.90500766
H -0.6830169 1.8944378 -0.15539779
H 0.73226434 -2.1233919 0.23113067
H -1.5629437 0.5969452 -1.0176917
H -1.2561749 -1.2674377 0.6676921
H 0.001940224 1.1721246 -1.6325095
