11

C 0.12135387 0.02044768 -0.2089136
C -0.20364887 -0.88912183 -1.3145119
C 1.2420672 0.99622905 -0.32860366
O -0.5008883 1.3127908 -0.5129654
C -0.22935666 -0.5416546 1.1506499
N -0.38240692 -1.6416903 -2.1730375
H -0.6652461 1.7683319 0.32834992
H 1.4989047 1.0298395 -1.4033303
H -1.2883464 -0.8097254 1.2174379
H 0.037225086 0.1920895 1.9161557
H 0.37034246 -1.4375362 1.3287691
