12

O -1.556424 -0.44525692 1.8445911
C 1.2362581 1.1988322 -1.3781724
C -0.81196475 -1.0624017 0.7952707
C 0.38595325 -0.29608002 0.35311693
N 0.37434804 0.35794348 -0.80742544
H 0.9957256 1.576392 -2.359921
H -0.5290962 -2.04316 1.1959742
H -1.5755996 0.50159293 1.6617277
H -0.4503141 0.17462903 -1.3696026
H 1.2447437 -0.15106381 0.9990003
H -1.4652238 -1.2582644 -0.074180976
H 2.1515937 1.446837 -0.86037886
