10

O 0.22582524 1.7500733 0.31932682
C -0.5331661 -0.63246876 0.70749056
C 0.44769293 -0.44377497 -0.78260314
O 1.3131171 -0.6541883 0.19585457
C -0.43171346 0.6320322 -0.12938784
O -0.7433174 -1.5030177 -0.23417367
H 0.6899068 -0.62183833 -1.8349866
H -1.3795327 0.8998178 -0.6010941
H -0.68733376 -0.8393417 1.7670326
H 1.0985211 1.4127065 0.5925406
