10

O -0.54933238 -1.72590492 0.22508061
C 0.93900982 0.33074842 0.23616889
C -0.63166250 0.76862692 -0.23465585
O -0.13474747 0.73397405 1.13453550
C -0.04417985 -0.64771104 -0.45999193
O 0.59367985 1.35311166 -0.71848026
H 1.95613696 0.27025891 0.62122430
H 0.18406228 -0.93147318 -1.48756360
H -0.73138681 -1.41020104 1.12705768
H -1.58157990 1.25856998 -0.44337546
