11

O 0.30302660 -0.63691439 -2.26198664
C -0.45139390 -0.73890805 -1.31950356
C -0.04842159 -0.32706936 0.03111610
C 0.43663971 1.03039747 0.43523585
N -0.27384326 0.90704971 1.73121209
C -0.74111621 -0.22851719 1.35208468
N 1.38597144 -0.01459576 0.31010716
H 1.82658670 0.05554971 -0.61348414
H 0.46812371 1.95374238 -0.13194386
H -1.42802722 -0.86748169 1.89760120
H -1.47754607 -1.13325304 -1.43043912
