10

N 0.8076891 0.78392345 0.96520627
C -0.8401691 0.052457456 -1.3175392
O -0.9824444 -0.6375148 1.4626215
C -0.12728389 -0.2064748 0.7695954
C 0.08196063 -0.86101097 -0.8985081
N 0.8775828 -1.5485544 -0.32493144
H 0.8759024 1.0490651 1.9367723
H 1.6983712 0.62635577 0.51868415
H -0.50234646 0.959813 -1.8047434
H -1.8892626 -0.21805969 -1.3071578
