11

O -2.0103292 0.9885842 1.3796756
C -1.0791949 0.6118799 0.7250563
N -0.97679937 -0.5491603 -0.015507515
C 0.40658316 -0.807126 -0.3585867
C 0.9403222 0.6303909 -0.32600406
O 0.08230867 1.3100427 0.5891738
H -1.6059994 -1.2950392 0.2405873
H 0.90570194 -1.4425743 0.38370293
H 0.511526 -1.2641433 -1.3448528
H 0.85844624 1.1099186 -1.3072131
H 1.9674349 0.7072265 0.03396814
