11

O 0.35259256 1.43124 2.024103
C -0.0048523927 0.721822 1.0345416
N 1.0077164 0.121624164 0.46998394
C 0.5439535 -0.4555994 -0.7788644
C -0.9886475 -0.43672088 -0.5517865
O -1.2034996 0.5421995 0.50615865
H 0.8429848 0.16034341 -1.6356255
H 1.4620513 0.90394956 1.4648762
H 0.9152965 -1.4738327 -0.9322774
H -1.3624965 -1.395969 -0.17965011
H -1.5650992 -0.11905661 -1.4214592
