11

O -2.10453774 0.20586320 1.57004079
C -1.14986711 0.03201723 0.86334119
N -0.83492735 0.68320411 -0.31411802
C 0.76265590 -0.89874607 0.04223439
C 0.55247250 0.44658432 -0.66296802
O -0.18167761 -0.89116607 1.11337967
H -1.26084754 1.58930181 -0.44220972
H 1.76423967 -1.02250304 0.45780009
H 0.53342407 -1.73966007 -0.61957135
H 0.70187777 0.37226301 -1.74342567
H 1.21718768 1.22284126 -0.26450347
