11

O -1.1997794 -1.658843 1.6568815
C 0.04834146 0.9150426 -0.32334214
N -1.0612879 0.21817431 0.29767385
C 0.9563564 -0.28195122 -0.63012546
C -0.6271839 -0.96700054 0.86030686
O 0.59827733 -1.2605447 0.3462503
H 0.5277153 1.6237493 0.36304742
H 0.75804085 -0.69236475 -1.6250637
H -0.2510512 1.447143 -1.2302421
H 2.0203652 -0.059965026 -0.53119063
H -1.7697943 0.71656 0.81580406
