9

O 0.76613797 -1.65455813 0.36881427
C 0.02473776 -0.50276657 0.30715256
N -1.02481055 -0.42297934 1.07888087
N -0.25909231 1.71514931 -0.53421468
N -1.94676125 -0.34842629 1.73622597
C 0.42409924 0.63802389 -0.48498815
H 0.45423277 -2.26739909 -0.31178460
H 1.36359091 0.45156468 -1.01888945
H 0.19786553 2.39139200 -1.14119660
