9

O -0.84572005 1.7028676 0.7072384
C -0.45332286 -0.6604016 -0.040236652
N 0.3753525 -1.4070091 -0.6741727
N 1.1018555 0.91062 -0.38722983
N 1.8541783 0.23301291 -0.95490575
C -0.08919569 0.7141674 0.16924134
H -0.5867339 1.8452588 1.6283778
H 0.06660631 -2.3650062 -0.7959817
H -1.4230202 -0.97350997 0.34766904
