10

O -0.06388433 -1.0948765 -0.8511265
C 1.2295645 0.91612977 -0.22465953
C 0.6592471 -0.4087164 0.17532371
O 2.182253 1.3954995 0.33216533
C -0.7917835 -0.5849333 0.23251826
O -1.5776228 0.5145385 0.011148458
H 1.3053766 -1.0250069 0.8004205
H -2.444199 0.2247696 -0.29719
H -1.2164923 -1.3472445 0.89365315
H 0.7175415 1.40984 -1.0722535
