10

O 1.392706 -0.10401741 -2.104337
C -0.42770386 -0.6258258 0.8992428
C 0.6235974 0.059794113 0.12866157
O -1.6415939 -0.55924064 0.454071
C 0.48311153 0.17522424 -1.364512
O -0.13884959 1.0184349 0.9246951
H -0.17115834 -1.1191797 1.8402063
H -0.5050163 0.51133263 -1.7377876
H -1.2755638 0.65446556 0.505997
H 1.6604706 -0.010987914 0.4537627
