9

N -0.12836700 0.77136876 1.23529128
C -0.34536559 0.82817618 -0.09849395
O -0.69958314 1.81019263 -0.71475099
C -0.11554919 -0.47059800 -0.80866668
C 1.25308454 -1.69775774 -0.90175775
C 0.11686455 -0.97845841 -2.02296506
N 0.21490247 -1.75764694 -0.17387106
H -0.33213462 1.59732396 1.77930592
H 0.03614786 -0.10260058 1.70590825
