9

N -0.26091474 1.219073 1.5203004
C -0.3699495 1.160103 0.1665659
O -0.74439365 2.068172 -0.5437447
C 0.014927809 -0.14118573 -0.40873033
C 0.30549416 -1.1632236 -0.9751781
C 0.6362312 -2.3386996 -1.6316358
N 0.91072786 -3.3214698 -2.1757538
H 0.031014243 0.43295488 2.0773897
H -0.5231375 2.0842757 1.9707867
