9

N -0.11820374 -1.0687953 -1.4095372
C 0.42860007 -2.0593648 -0.057047363
O 0.4398295 0.47774044 2.1001217
C 0.23154135 -0.8260577 0.18521798
C 0.040547933 -2.2320676 -1.7631785
C 0.1375572 0.4425 0.9291722
N -0.29046124 1.4847932 0.17879477
H -0.3571149 2.3834705 0.63363147
H -0.51229614 1.397781 -0.79717517
