11

C 0.69883443 -0.87348686 -1.65720619
C 0.31807907 -0.30161745 -0.51734452
C -0.84451282 0.51922538 -0.19931178
C -0.73228466 0.85807088 1.09182081
N 0.46588863 0.39430439 1.64355900
O 1.05784785 -0.42457793 0.64457766
H 1.60191963 -1.47021288 -1.72020642
H 0.09409790 -0.74005629 -2.54546568
H 0.34169322 -0.21422639 2.45035371
H -1.61606544 0.79604810 -0.90339337
H -1.38549798 1.45652900 1.71261684
