11

C 1.0106442 -0.8093263 -1.1427944
C 0.21817213 -0.16373964 -0.058817003
C -0.883514 0.62890416 -0.051771868
C -1.0934266 0.88269806 1.3315868
N -0.20047516 0.2965372 2.0768535
O 0.6327432 -0.36875963 1.2014786
H 1.0099183 -1.8978596 -1.0336124
H 0.58212626 -0.55484945 -2.1140816
H 2.050432 -0.46998575 -1.1187209
H -1.4592686 0.9809906 -0.89395916
H -1.8673519 1.4753903 1.8038385
