10

C -0.6819381 0.42404062 0.9482618
O 1.7158923 0.55862623 0.67111003
C 0.6035369 -0.15313877 0.58899397
O -1.536104 -0.01277661 -0.05858212
C -0.6468512 -0.29782298 -1.092151
O -1.0123652 1.0630897 1.9066808
H 0.37596485 -0.93772346 -0.2934
H -0.9613489 -1.1639292 -1.6787378
H -0.33205482 0.5631805 -1.6793166
H 2.4752681 -0.043546043 0.68714064
