10

C -0.98991275 0.385174 -1.3121426
O -0.5376346 -0.39156538 -0.1934209
C 0.5237705 0.09879798 0.4359282
O 1.1140888 1.1081014 0.14451763
C 0.963947 -0.76689804 1.6167387
O 0.40452835 -1.7750111 1.9494513
H -1.8494964 -0.1554136 -1.7063923
H -1.2805579 1.3878796 -0.9874567
H -0.20480222 0.46073213 -2.0690775
H 1.8560693 -0.35179698 2.121854
