10

C 0.38709931 0.34534740 -1.09655476
O 0.65830203 0.16592275 -2.24295439
C 0.13972463 0.75475130 0.87649246
O 0.79465656 1.35485683 -0.28065084
C -0.44428972 -0.34506837 -0.00625763
O -0.05989408 -1.63569049 0.36741182
H -1.52325096 -0.24680006 -0.18671426
H -0.56374176 1.45208643 1.33297020
H -0.26159034 -2.23608571 -0.35985294
H 0.87298441 0.39067993 1.59611015
