11

N 1.618818 -0.06772854 -0.29298505
C 0.47946307 0.18045828 -0.9899193
O 0.37108606 0.14518838 -2.1984398
C -0.7162733 0.4663606 -0.11427742
C -1.161532 -0.51952755 0.8731114
O -0.4690386 0.6557163 1.272712
H 1.6592296 0.18119733 0.68362385
H 2.4753406 -0.17848337 -0.813748
H -1.4465097 1.1376323 -0.5622966
H -2.2123778 -0.5559859 1.1554044
H -0.5982059 -1.4448277 0.98681426
