11

N -2.1253114 -0.013590791 0.3799374
C 0.025338668 -1.1298668 -0.089481175
O 1.1867982 -0.54658705 -0.6467508
C -0.89523005 0.049695846 0.12484351
C 1.214969 0.77093965 -0.18586953
O -0.1391551 1.1737926 -0.0015933852
H 1.7385887 0.8538781 0.77720195
H 1.6772681 1.4058999 -0.9423117
H 0.23373744 -1.6233236 0.87029725
H -2.524374 0.91326106 0.5043834
H -0.39263 -1.8540988 -0.7906568
