10

O 1.52684393 -1.26088509 1.42633189
C 0.89169240 -0.36204037 1.92423292
C -0.51118858 0.06521095 0.00675106
N -0.86779621 -0.33353628 -1.08081289
O -0.91775908 1.00163752 -2.95599157
C -0.50226313 0.02862165 -2.39216414
C -0.16123491 0.41017180 1.23237398
H 0.14644782 -0.73218093 -2.85824196
H -0.66057507 1.23955207 1.71957888
H 1.05583320 -0.05655116 2.97794185
