10

O -1.2022792 1.8367511 0.76706845
C 1.577741 -0.6044652 -0.9124118
C 0.5379381 0.12716973 0.10575208
N 1.2064495 1.169222 0.098553106
O 2.4042978 -1.3524367 -0.50839275
C -0.7075163 -0.41798693 0.34215248
C -1.5743809 0.6685426 0.7296668
H -2.5990605 0.39050585 1.0328845
H -0.964301 -1.4646924 0.29227716
H 1.321111 -0.3526102 -1.9475503
