10

O 1.6459982 2.802334 0.1451183
C -1.1469424 -0.4497414 0.44185874
C 1.6091006 1.777569 -0.4760044
N 0.41727737 1.101554 -0.80307627
O -0.029803373 -2.4225965 -0.2926507
C -0.3126852 0.375719 -0.16332483
C -0.9523454 -1.9069386 0.2923774
H -1.9701257 -0.050249822 1.0226828
H 2.489801 1.2909375 -0.9281455
H -1.7502753 -2.5185878 0.76116467
