11

N 1.9307599 1.1586878 0.8288211
C 0.87828237 0.56464875 0.37906963
N -0.30619612 1.2668961 0.025634801
N -1.1921897 0.42175975 -0.32012305
C 0.62329924 -0.8091333 0.14616205
C -0.74141026 -0.97634673 -0.36739802
H 1.7531698 2.1624835 0.8690914
H -1.4019904 -1.5983857 0.2518504
H -0.808779 -1.3330256 -1.4060025
H 1.3192488 -1.6136727 0.3223372
H -2.0541945 0.7560877 -0.729443
