11

N -1.1748221 -0.2840309 1.6092453
C 1.1387467 -0.0013836618 -0.81128603
N -0.7957468 1.1577728 -0.36530504
N 0.37904197 1.0543455 -1.0639839
C -0.7252288 0.07369786 0.41509387
C 0.40340814 -0.82346636 0.10994745
H 0.60501236 1.8164208 -1.6880987
H 0.016593987 -1.0311769 1.4372748
H -2.075104 0.028470062 1.9498924
H 0.1653439 -1.8315431 -0.24177001
H 2.0627544 -0.15910608 -1.3510103
