9

C 0.77613664 0.11967985 -1.6538154
C 0.15239526 0.025007825 -0.3345782
C -0.3500723 -0.04283213 0.75978667
C -0.973897 -0.15137833 2.0674458
O -0.6568957 0.5161255 3.0243778
H 0.8136381 1.1610061 -1.986366
H 0.21910265 -0.45988294 -2.3968208
H 1.8008113 -0.26173007 -1.6171042
H -1.781219 -0.9059959 2.1370745
