11

C -0.5198424 1.1353134 0.47945476
C -0.12859488 -0.23261355 -0.030204086
C 1.259567 -0.71282643 0.028560115
O 0.2803736 -1.1803924 0.941364
C -0.98890144 -0.77498 -1.0806489
N -1.6785327 -1.1687908 -1.9211828
H -1.5253109 1.11139 0.90917987
H 0.1836893 1.4524442 1.2541417
H -0.5091576 1.867185 -0.3337984
H 1.6117352 -1.4456389 -0.69476515
H 2.014975 -0.05109054 0.44789875
