11

N 0.46831572 0.3389314 -2.923186
C 0.3620135 0.6310525 -1.8115399
C 0.20902528 0.9684 -0.39218616
C -0.5996054 -0.087036416 0.3421071
C 0.058114108 -1.1832446 1.0521525
O -0.47707704 -0.061807614 1.7489128
H -0.28047794 1.9437144 -0.30870095
H 1.1983447 1.0574098 0.07056243
H -1.6136268 -0.23530164 -0.027484842
H -0.46999454 -2.123416 1.2035825
H 1.1449684 -1.2487018 1.0457807
