11

N 1.7651745 -1.169085 -0.075931035
C 0.6831259 -0.5187737 -0.06590818
C -0.34155315 -0.28873503 1.0575111
C -0.9841339 0.7435542 0.12854695
C -0.025659826 0.47371513 -0.95319587
O -1.3866547 0.035694707 -1.0285977
H 2.2683542 -1.034182 -0.95364267
H 0.13799654 0.13393322 1.9462442
H -0.97500294 -1.1345171 1.3327951
H -1.4951195 1.6674858 0.37182534
H 0.35347307 1.0909097 -1.7596473
