11

N 1.54914728 0.04438731 -1.44448558
C -0.52998034 0.90655163 -0.17587436
C 0.58488164 -0.00158934 -0.63090564
C -0.82543396 -0.02181860 0.92525645
C 0.25568376 -1.01005841 0.48245626
O -1.71559543 0.10399379 -0.16738054
H -0.64536857 1.98001507 -0.27281039
H 1.53218836 0.90815638 -1.98797590
H -1.19563827 0.19618949 1.91992298
H -0.10295354 -1.99350039 0.17163734
H 1.09306905 -1.11232690 1.18015957
