10

N 0.8239844 -1.5091255 -0.45486876
C -0.20239735 -0.6469189 -0.36353645
O -1.3339705 -0.8120564 -0.7829604
C 0.20394316 0.6474467 0.36411908
O 1.335073 0.81491226 0.7832996
N -0.8253762 1.5066453 0.4571937
H 1.7123325 -1.2328702 -0.060984913
H 0.7000312 -2.3977706 -0.9068123
H -0.70212317 2.3973024 0.9062934
H -1.7114968 1.232435 0.058257055
