10

N 1.7116408 0.25439796 -0.15001678
C -0.6508064 0.1648888 0.1240205
O 0.62513644 -1.7235044 -0.5526147
C 0.63273424 -0.5502656 -0.23410688
O -0.70092106 1.4057841 0.4704416
N -1.8451548 -0.32698262 0.14550234
H 1.6041864 1.2132225 0.14091998
H -2.0604916 -1.287615 -0.0893515
H -1.9364032 0.9746762 0.5108412
H 2.620079 -0.12460192 -0.36563575
