17

C 0.63893623 2.26405424 -0.14987651
N 0.91048370 0.85557336 0.05352589
C -0.06595289 -0.11462332 -0.06318844
O -1.15216600 0.36405823 -0.69064429
N -0.00499239 -1.33112975 0.31895728
C 1.21133950 -1.77541951 0.96548988
C -2.17962925 -0.59187777 -0.93781888
H -2.55140414 -1.02069211 -0.00419516
H 0.01019227 2.70050608 0.63637199
H 0.13631321 2.40655576 -1.10834387
H -2.96990973 -0.03599894 -1.44653655
H 1.10861979 -2.83742756 1.20612001
H 1.41508701 -1.24774707 1.91296014
H 2.09840017 -1.67110383 0.32264010
H 1.59256178 2.79799301 -0.17908778
H 1.61506304 0.64014944 0.73698797
H -1.81294207 -1.40287030 -1.57336143
