12

O -1.2634102 -0.66056585 1.2342124
C 0.12566204 -0.48549268 1.1825285
C 0.5863 0.7035666 0.34482327
O 0.8554525 0.40150353 -1.0454702
C -0.14916736 0.02708588 -1.8268632
O -1.2877532 -0.19347836 -1.487741
H -1.5836109 -0.63298756 0.31799603
H 0.6592427 -1.3844465 0.83058137
H 0.450508 -0.29735246 2.212552
H 1.5536141 1.0714306 0.6948866
H -0.15818311 1.5026397 0.4033016
H 0.21134514 -0.05190295 -2.8608077
