11

N 0.89153486 -1.2887625 -0.24604133
C -0.32623583 0.8155754 -0.15511264
O 1.9012305 0.6371267 -0.9293672
C -0.7329487 1.0887125 1.2512437
C 0.9279863 0.045595575 -0.5052029
O -1.4722191 -0.07451409 0.06612697
H 1.7335113 -1.8212155 -0.40148818
H -0.5173428 1.580226 -0.90840304
H -2.2820075 0.4302458 -0.09317338
H 0.05676247 -1.7454156 0.07709561
H -0.18027149 0.33242613 1.8443223
