11

N 0.5066664 -1.7536547 -0.42951712
C 0.97181743 0.6841661 -0.4486391
C 0.34935695 -0.50018555 0.26316768
N -1.0702019 -0.21342048 0.5583714
N -0.034562618 1.543868 -0.38676673
C -1.2218992 0.9906442 0.20018041
H 1.4563951 -1.830319 -0.770632
H 0.015026814 2.4883285 -0.74254704
H -2.1211872 1.5902417 0.29826292
H 0.8371828 -0.47379062 1.2620184
H 0.31140506 -2.5258782 0.19610107
