10

O 0.21699426 1.7585487 0.8147778
C 0.08483581 0.53620005 0.23234819
C 1.4824955 -1.4278201 0.9225683
N -1.25563 -1.4926118 -2.121085
N -1.0629205 -0.53541106 -1.5530555
C -0.8330555 0.5515865 -0.88974464
N 0.675429 -0.49295536 0.6615149
H -1.3206332 1.4590364 -1.2112498
H 1.0547312 -2.078795 1.7074127
H 0.9577533 1.722221 1.436513
