12

C 0.75812886 -0.26390723 -1.91870842
C 0.17724020 -0.41314741 -0.72649853
O -0.38370835 -1.56966237 -0.28024268
N 0.07147957 0.59558312 0.21503353
C -0.48632681 0.49378611 1.47537642
N -0.51389063 1.51856635 2.22481650
H -0.24793146 -2.24478253 -0.95807264
H 1.19215656 0.68344816 -2.21236630
H 0.80679066 -1.09112292 -2.61981950
H 0.44175784 1.50219506 -0.02623711
H -0.86378904 -0.50276428 1.71451394
H -0.95190760 1.29180800 3.11220425
