12

N -0.3853323 -1.7591025 1.436169
C -0.120491646 -0.67106414 0.6664657
C 1.3291992 -0.26902843 0.47680253
N -1.0077289 0.07347003 0.09083106
C -0.2827836 1.1451842 -0.53135353
O -0.5425392 1.3388462 -1.8757601
N 1.139532 0.7785537 -0.27275178
H 1.8918298 1.3550531 -0.62369037
H 0.3829118 -2.3863847 1.599153
H -0.49274355 2.1011412 -0.037955105
H -1.3046968 -2.17266 1.3614438
H -0.6071567 0.4659914 -2.2893543
