12

N -0.27376774 -0.012324334 -2.047975
C -0.15939789 -0.037848543 -0.6522869
C -1.0311918 -0.31216705 0.3351504
N -0.3547086 -0.09988198 1.5487318
C 0.9344645 0.33272052 1.32971
O 1.7736675 0.6558904 2.1489246
N 1.0503181 0.31049177 -0.055061124
H 0.29310387 -0.7209277 -2.4989262
H -1.2346234 -0.12521066 -2.339596
H -2.0480711 -0.66738707 0.29541114
H -0.76430744 -0.08848843 2.46459
H 1.8145138 0.7651331 -0.52867293
