11

C -0.05414736 -0.72848195 -0.5128993
C -0.6321251 0.13684988 0.4772537
O -1.3816178 -0.14828351 -0.64515835
C 0.98505867 -0.25120854 -1.4897586
C -0.72991157 0.76486516 1.606499
N -0.72728664 1.4619753 2.6298044
H -0.08192389 -1.8008064 -0.31078288
H 0.8623418 -0.766872 -2.4478526
H -1.1246988 0.98222643 3.4402122
H 1.9830676 -0.47822887 -1.1018853
H 0.9012432 0.8279646 -1.6454328
