11

O -2.0112782 0.9857501 1.3821884
C -1.079888 0.6106142 0.7263134
N -0.976246 -0.55007786 -0.017008496
C 0.40593266 -0.80607754 -0.35881472
C 0.94002885 0.6318055 -0.3245493
O 0.08190112 1.3105049 0.59086657
H -1.6039274 -1.2978623 0.23348977
H 0.9059616 -1.4426218 0.3817386
H 0.51090646 -1.2609922 -1.346696
H 0.85912263 1.1113803 -1.3044171
H 1.9674863 0.7075763 0.036888715
