11

O -2.02703010 1.24947820 1.86287074
C -1.02429506 1.19317688 1.26068280
N 0.06019015 1.28269226 0.73377638
C 0.47318344 -0.94484389 -0.24614720
C 0.70711694 0.55944180 -0.33590417
O -0.90051681 -1.26454603 -0.22372575
H -1.29374390 -1.02051146 -1.07057350
H 0.88294641 -1.32442719 0.69434963
H 1.00140467 -1.43901569 -1.07491937
H 0.33954878 0.93789722 -1.30046288
H 1.78119549 0.77065751 -0.29994684
