11

C 0.68330059 -0.39320680 0.00465734
C -0.93930056 0.41567863 -1.69602489
C 0.43193212 0.27406702 -1.09136204
N 0.95573386 -1.09092859 0.97733448
N 1.09123981 -0.50026024 2.23493808
N 0.06128793 -0.60053669 2.91030247
H -1.24311760 1.46634149 -1.75073863
H 0.30397943 -0.18933681 3.81905397
H -1.68863028 -0.12643261 -1.11124889
H 1.28663959 0.73282730 -1.58333053
H -0.94306507 0.01178708 -2.71358154
