11

C -0.37798005 -1.1099513 -0.38656017
C -1.667641 0.124011315 0.22157337
C 0.006387021 0.05995969 0.03888921
N 0.6429361 1.1640377 0.18412721
N 2.436969 -0.049902 -0.3503932
N 1.9845117 1.0970153 -0.19991969
H -2.0047185 0.78489846 -0.5734563
H -1.6666187 0.6070837 1.203835
H 3.4093144 0.08511135 -0.63368803
H -0.44773424 -2.0097473 0.21629298
H -2.3154256 -0.75251687 0.27929977
