9

N -1.54928256 1.09584818 -0.73170335
C -0.87971742 0.19230433 -0.26770272
C 1.11877381 -0.31679255 0.97499469
C -0.11284731 -0.85369071 0.14663378
N 1.28662308 -0.80456223 -0.32976206
H -1.89464878 1.83437382 -0.12522989
H 1.17312306 0.78662618 1.03929392
H -0.57451384 -1.80656234 0.38233206
H 1.43249016 -0.12754467 -1.08885647
