11

O 0.81697204 -1.42200519 -1.36235871
C -0.84889673 1.11521307 -0.79170351
C -0.08625636 0.16193108 0.10505977
C 1.05054761 -0.61823189 -0.48362463
O 1.00719527 0.66353955 2.13375167
C -0.04036849 0.51520343 1.55755311
O -1.33250366 -0.43940604 -0.30027710
H -0.49894554 0.88160090 -1.81493328
H -1.09464859 -1.11526914 -0.97260835
H 2.05686811 -0.42584190 -0.08903526
H -1.02996379 0.68326593 2.01817613
