11

O 0.3841888 2.0313566 1.3166673
C -0.05190895 0.18603784 -0.085992955
C 0.85153925 -0.76491255 0.63995576
C -0.06022083 0.16057807 -1.6005338
O -1.2117883 -0.5296449 -0.55664647
C -0.38060558 1.4968799 0.55455023
O 0.6578097 -1.9577893 0.5290658
H -1.3348631 1.9416567 0.22095823
H -1.0210501 -1.4797856 -0.39463764
H 0.5082166 -0.7492508 -1.8709593
H 1.6586826 -0.33512565 1.2475728
