11

O 1.198682 0.6340122 -1.965986
C 0.16531083 0.68413234 -1.3560836
C 0.03894015 0.16008808 0.05138374
C 0.8669149 -1.003753 0.44024116
O 1.1970844 0.28703076 0.866851
C -1.2520006 0.36566305 0.777239
O -2.288459 0.60408664 0.20918044
H -0.7676685 1.1020371 -1.7824373
H 0.4989214 -1.6816249 1.2104046
H 1.5152402 -1.4222693 -0.3293478
H -1.1729659 0.27059683 1.8785546
