11

C 0.5111032 -0.96375006 1.500614
C 0.16409801 -0.12501663 0.31949008
N 0.6346388 1.0345658 -0.009881656
C -0.032557204 1.3591115 -1.1828786
C -0.8806322 0.36050203 -1.4988613
O -0.7645027 -0.6035569 -0.540596
H -0.38222232 -1.1979463 2.0886033
H 1.21566 -0.41608185 2.1268642
H 0.96766436 -1.9096506 1.1973598
H 0.15034837 2.2858229 -1.70639
H -1.5835981 0.17599978 -2.294324
