10

N -0.40401813 -0.16592546 -0.84639984
C -0.26975337 0.69362915 0.1534965
N -0.87010765 1.8251833 -0.17070338
O 0.49273124 0.240853 1.1545044
C 0.39490303 -1.2514961 -0.5147053
C 0.9195352 -1.0143468 0.7063396
H 0.50849015 -2.117748 -1.1477766
H -1.0808635 0.89986867 -1.2414068
H -1.2398418 2.4588506 0.52485186
H 1.5489247 -1.5688682 1.3817996
