10

N -0.39063074 -1.44995422 -1.29245030
C -0.11293568 -0.50317187 -0.33881743
N 0.03646875 -0.68317323 0.93343422
O 0.09427724 0.74994719 -0.77567014
C 0.39302871 0.58242748 1.39543009
C 0.42338969 1.45142635 0.37132054
H -0.90820084 -1.11366145 -2.09006289
H -0.76656402 -2.29836761 -0.89632240
H 0.59816172 0.76252251 2.44147634
H 0.63300512 2.50200472 0.25166214
