12

N 0.8323953 -0.0001819743 -0.77940995
C -0.44534835 0.27711597 -0.4740738
N -1.3486391 0.821059 -1.3581784
C 1.4625124 -0.6344452 0.33266658
O 0.19251566 -1.0161121 2.511508
C 0.48993036 -0.6782269 1.2977557
N -0.67053217 -0.10706253 0.772543
H -0.9929084 1.6011095 -1.8955076
H -2.2373767 1.0341135 -0.92830586
H 1.2075319 0.034883294 -1.713454
H 2.498999 -0.92398965 0.31013805
H -0.98908025 -0.40826282 1.924318
