11

C -0.20289178 -0.7573305 1.0445408
C -0.9200055 0.036954492 -1.2543392
C 0.07723702 -0.56766033 -0.29730466
C 0.52830094 0.10648954 1.818592
N 1.3823676 0.93709034 1.1241052
O 1.343105 0.80293506 -0.111912414
H -1.4561919 0.8631613 -0.7799422
H 0.5531059 0.20952213 2.896801
H -0.41754797 0.3963299 -2.1560848
H 0.76121294 -1.2969851 -0.74376535
H -1.6486921 -0.7305069 -1.5406905
