11

C 0.28110106 -1.26987320 -1.27889290
C 0.60913712 0.09226382 -0.72113739
C -0.13081714 0.72143973 0.14422451
C -0.84076328 1.32460423 1.07196306
N -0.63235340 1.09560430 2.48772560
O 0.19468706 0.26039819 2.75932827
H 1.52489473 0.58313598 -1.05423774
H 0.23937918 -1.23238448 -2.37102404
H 1.05882289 -1.98808889 -0.99843692
H -1.62603647 2.04094861 0.85861232
H -0.67805208 -1.62804821 -0.89812455
