11

C 0.70292846 1.05369753 -0.69178084
N 0.03494891 -0.02274897 0.00740221
C 0.46160614 -1.20520565 0.48032035
N -0.49296714 -1.89235319 1.04985155
C -1.68501933 -1.14104126 0.97932490
N -1.30206210 -0.02312387 0.33061876
H 0.25765634 1.20173850 -1.68026386
H 0.64313697 1.98070293 -0.11358338
H 1.75341763 0.78172838 -0.81464015
H 1.49796430 -1.50417933 0.37107915
H -1.87161009 0.77078527 0.08167125
