12

C -1.02713464 0.27100475 0.39164688
N -0.42848273 0.83901839 -0.80337627
C 0.92828893 0.54377472 -0.84668353
N 1.15859673 -0.41703085 0.12913729
C -0.10120897 -0.93115645 0.63634920
O 1.74697337 1.02992774 -1.59401592
H -2.06346881 -0.03474119 0.22918196
H -0.68152288 1.76555119 -1.11332889
H -0.98667056 0.96707474 1.23852997
H -0.04175603 -1.19563996 1.69578602
H 1.94081080 -1.03269400 -0.03104579
H -0.44442516 -1.80508939 0.06781898
