11

C 0.34297585 0.17264836 0.4632262
C -1.0215788 -0.533995 0.34909222
C 0.32846916 2.7629807 0.47241962
O -0.57210314 -1.2822306 -0.7845669
C 0.63077635 -0.51266897 -0.88498986
N 0.33977675 1.590681 0.47738534
H -1.8447236 0.14647952 0.10349787
H 0.9615599 -0.19636343 1.2839056
H 1.5242187 -1.1439129 -0.9283333
H 0.6162008 0.17700695 -1.7369828
H -1.3055717 -1.1806257 1.1853462
