11

C -0.98982805 0.89307815 -0.117359474
C 0.059610534 -0.19395337 -0.17338353
C 0.6747247 -0.7403853 1.0459083
O -0.3140915 -1.4644768 0.33714586
C 0.8373822 -0.2442466 -1.4083495
N 1.4479467 -0.2456794 -2.3895504
H -1.7187328 0.7609424 -0.92128897
H -1.5119395 0.8473988 0.8416267
H -0.52759594 1.8793776 -0.22667608
H 1.6789898 -1.1600456 1.0068979
H 0.36353362 -0.33201003 2.0050294
