11

N 0.9513362 1.1473284 1.118905
C 0.119937986 0.32510564 0.35660267
C -1.2035571 0.12953454 0.3128559
O -1.5105413 -0.7293314 -0.7360933
C -0.3489599 -1.0923198 -1.3586664
O -0.27618083 -1.8109146 -2.3197556
N 0.66304535 -0.46687946 -0.65692127
H 1.6125165 0.62004346 1.6786112
H 0.4204361 1.7605058 1.723441
H -2.0264366 0.5002837 0.9019464
H 1.5984039 -0.3833563 -1.0209256
