11

N 1.1992208 -0.18255205 -0.38680753
C 1.7838355 0.29532093 0.73511726
C -0.12002922 -0.06250687 -0.13290523
O 0.7491463 0.710478 1.6620113
C -0.44538346 0.45962614 1.0574932
O 2.9411447 0.4225465 1.0611808
N -1.0367503 -0.50182086 -1.1947085
H -1.360907 0.69992477 1.5769237
H -0.8499451 0.032897033 -2.0477118
H -0.8490597 -1.4852517 -1.4082435
H -2.0112724 -0.38866183 -0.92234945
