11

O -0.61133647 1.0576868 2.1885376
C 0.305759 0.63523966 0.013090083
C 0.06632633 1.4513783 1.2720276
O 0.9920136 1.1058929 -0.8651203
C -0.3411989 -0.73351306 -0.057959124
N -0.07467391 -1.4803885 -1.259564
H 0.9248858 -1.610267 -1.3811193
H 0.57382303 2.4368725 1.2625393
H -0.020816505 -1.3008976 0.8273567
H -0.39118862 -0.9644925 -2.0746322
H -1.4235932 -0.597512 0.07484369
