11

O -2.2435555 -0.0065658386 0.624233
C -0.4996923 -0.4023501 -0.9398232
C -1.0615551 0.17550352 0.38868132
O 0.80468196 -0.9897986 -0.68297
C 1.6204026 -0.14725475 -0.11732626
N -0.13235825 0.84955883 1.06737
H 2.489227 -0.73625493 0.21995257
H -1.133938 -1.2111218 -1.3003703
H -0.42952967 1.2381163 1.9441766
H 1.0007087 0.83097756 0.47315872
H -0.41439128 0.39919004 -1.6770824
