9

O -0.84482163 1.0238497 -0.122550495
C -0.6809694 -0.20573598 0.5948893
C -0.030170243 -1.0311301 -0.39986932
O 1.2627635 1.4963329 0.089915894
C 0.39482287 0.93849635 -0.6516392
N 0.6525981 -0.27754408 -1.2419366
H 0.030180763 -2.1149745 -0.41516012
H 0.7462006 0.68095565 0.9514017
H -1.5306042 -0.5102497 1.1949488
