9

O 1.0016457 -0.9481277 -1.5029404
C 0.30808365 -0.3482699 -0.5219167
C -0.9409511 -0.6215518 -0.078447655
O -1.1972795 0.2675712 0.9434846
C -0.08865494 1.0070354 1.0385507
N 0.8456917 0.69530475 0.19811937
H 1.8607947 -0.5049131 -1.5427657
H -1.7152933 -1.3280456 -0.32712778
H -0.07403686 1.7809967 1.7930435
