12

C -0.55573025 -0.95917034 1.06707130
C -0.76417475 -0.55115364 -0.38081143
N 0.63244259 1.75531417 -0.10223125
C 1.08791687 0.84214054 -0.85320621
O 0.47869531 -0.33268210 -1.05949946
H 0.10333566 -1.83072756 1.13182232
H -1.52038827 -1.22243478 1.51413190
H -0.12193421 -0.13299733 1.63546584
H -1.23755760 -1.35279551 -0.95133865
H 2.01262713 0.87106442 -1.43920211
H -1.37176643 0.35647465 -0.45202199
H 1.25653397 2.55696766 -0.11018056
