12

C -0.3498388 -1.1032168 0.98065364
C -0.26019624 -0.6289136 -0.4674423
N -0.263811 0.81878024 -0.5851933
C 0.877208 1.5503618 -0.4965836
O 1.9933082 1.0809948 -0.40777647
H -0.34320995 -2.1959317 1.026836
H -1.2715214 -0.74733716 1.4562966
H 0.5048354 -0.7250808 1.549432
H -1.0956553 -1.0175856 -1.0578289
H 0.6690136 -0.9832126 -0.9245586
H -1.143022 1.3118649 -0.5389468
H 0.6828895 2.6392767 -0.53488857
