9

N 0.33420014 -0.47159165 -0.023606237
C 1.5806414 -0.22470163 0.5070252
N -1.629724 -0.15177934 -0.6630657
C -0.63075316 0.44896144 -0.08971433
O 2.4769928 -1.0297397 0.58200127
H -0.729088 -1.1313264 -0.6283073
H -2.5320563 0.26606095 -0.82792646
H -0.5620731 1.4740257 0.26888534
H 1.6918601 0.8200908 0.8747081
