10

O -1.87612275 -0.78201706 0.46292296
C 0.90053421 0.94120341 0.24107514
C -0.79673529 -0.31459753 -0.27348279
N -0.35553752 1.03974744 0.13672547
C 0.39358874 -1.26717051 -0.22966911
N 1.36411973 -0.39805289 0.00938892
H 1.59969712 1.73762858 0.47658554
H -1.02337490 -0.21512602 -1.35573747
H -2.54554938 -0.08765787 0.46139731
H 2.33937986 -0.65395735 0.07079417
