10

O -0.19363652 -2.0756147 0.0036561557
C 0.4608736 1.0729332 0.625582
C 0.06769163 -0.07912128 -1.3425866
N 0.56040454 1.0272441 -0.8062712
C -0.5172423 -0.7296037 -0.09322231
N -0.11539754 0.052582975 1.1000427
H -1.6097169 -0.5538494 -0.1834717
H -0.5178368 -2.3870032 0.85700274
H 0.85639054 1.91652 1.1828204
H 1.0084696 1.7559121 -1.343552
