10

O 0.21520853 2.2131279 0.39403588
C 0.1187879 0.88348716 0.16364232
C -1.0035446 0.19429517 -0.21378109
N -0.5704373 -1.1186619 -0.31281555
C 0.7443637 -1.1401439 0.0015097352
N 1.1940906 0.05999597 0.29546186
H 1.132861 2.376581 0.65059936
H -2.0203798 0.4905564 -0.41225436
H -1.1383629 -1.9089836 -0.5694652
H 1.3274127 -2.050254 0.0030671803
