9

O 0.42433318 -1.2480879 -1.1911362
C 0.2511547 -0.21316648 -0.37302414
N 0.6648959 -0.2516121 0.88056654
N -0.06863711 0.17559408 1.8202133
N -1.5169336 1.0858601 -0.19032826
C -0.55552655 0.927878 -0.93996376
H -0.32397485 1.2899497 -1.9490947
H 0.5518851 -2.0602994 -0.67933947
H 0.572803 0.2938842 2.6221066
