12

N -0.82697038 -0.98532897 1.08364071
C 0.22190028 0.02576706 1.22788806
C 0.38077508 0.67781307 -0.17922634
C 1.55271788 0.16410531 -0.91383586
N 2.45056042 -0.25502663 -1.50553786
C -1.35380815 -0.79598872 -0.05591093
N -0.87247225 0.26925065 -0.81776576
H -0.09606027 0.77351385 1.96116367
H 0.45457580 1.76727016 -0.12433359
H 1.14807679 -0.43042415 1.58608749
H -0.87468390 0.17306268 -1.82442242
H -2.18461144 -1.38401425 -0.43774742
