10

N 0.8664476 -1.2159567 0.084514596
C -1.2150596 -0.8003784 -0.4560962
N 1.5532455 1.0060999 0.42201704
O -0.37950137 -1.803937 -0.33571956
C 0.6073111 0.07207213 0.13948865
O -2.4287384 -0.70077705 -0.79683685
N -0.69005126 0.38406482 -0.1770608
H -1.9418136 0.5656184 -0.538087
H 1.2184845 1.8541322 0.8528624
H 2.4096756 0.6390612 0.8049177
