10

N 1.81111836 0.89265819 -0.20357672
C -1.18980577 -0.53937944 0.25917521
N -0.50416638 0.56315341 0.24326825
O -2.47007630 -0.68794790 0.55298366
C 0.72354562 0.06828732 -0.12032922
O -0.53746468 -1.63680681 -0.05192241
N 0.79172751 -1.22406222 -0.32711455
H 1.58179159 1.85107872 -0.41580939
H -2.80194848 0.19283661 0.77885073
H 2.59527850 0.52018237 -0.71552566
