12

O -1.2402678 0.5407469 -0.65815675
C -0.14656252 -1.3173891 0.37453488
C -0.5613475 0.13881291 0.53338844
O 0.8025551 2.03312 0.007800294
C 0.5754634 1.1124411 0.76344556
O 0.56687725 -1.1331906 -1.1775928
H 1.2092842 0.9072438 1.6479738
H -1.2240721 0.1729329 1.4113588
H -0.10936547 -0.46783227 -1.4941812
H -0.9589794 1.4564263 -0.8194056
H 0.31965476 -1.9805946 -1.5632174
H 0.7667602 -1.4627172 0.97405195
