12

O 1.30344651 1.73437073 -0.26592824
C 1.13964510 0.79048780 0.47735782
C -0.22624189 0.18729675 0.72980668
O -1.17688599 0.93696934 -0.02948933
C -0.36778689 -1.28030715 0.35045309
O -0.32804376 -1.03169194 -1.34914589
H -0.84184607 -0.17440351 -1.31311995
H -0.72605591 1.76529255 -0.26235412
H 1.98526912 0.28997230 0.98787637
H -0.43114743 0.24413581 1.80961364
H -0.95147129 -1.71421295 -1.62011086
H 0.62111838 -1.74790949 0.48504051
