12

O 0.51346153 -0.93053323 -1.1189274
C 0.4437901 0.34216803 -0.50893116
C 1.1201487 0.25773865 0.8537451
O -1.7101957 -0.60775834 0.3845494
C -0.99530315 0.7786805 -0.4399617
O 1.6233721 -0.76985383 1.2505664
H -1.1155342 1.55472 0.32592195
H 1.109482 1.1796627 1.4630384
H -2.0761268 -0.21335147 -0.50772244
H 0.97324634 1.1151532 -1.0957787
H -1.1013167 -1.295697 0.03920379
H 1.2149758 -1.4109287 -0.6457038
