11

O 1.6791909 0.6621882 -0.51695216
C 0.76087487 -0.048359822 0.25159934
C -0.3361867 0.6905001 1.0449433
O -1.3507841 -0.14598365 0.41593316
C -0.4238442 -0.6856352 -0.44130597
N -0.558294 -1.3738308 -1.4813273
H 1.2561371 0.90727305 -1.349434
H 1.3201234 -0.7551475 0.870703
H -0.34754837 0.57387114 2.1302843
H -0.46033922 1.7372755 0.7533119
H -1.5393295 -1.5621508 -1.6777556
