11

O -0.13536829 -1.0799946 0.8167333
C -0.12072552 -0.63441056 -0.46735317
C -0.07759392 0.8685619 -0.37434474
O 1.1665202 1.4150618 -0.2790308
C -0.77972555 -0.11292848 1.5924366
N -0.11642095 -1.299214 -1.5341482
H -0.18083066 -2.3005137 -1.3432622
H -0.8119979 0.8914159 0.7263789
H 1.8318639 0.74164003 -0.46663016
H -0.073942736 0.098530956 2.4179022
H -0.70177853 1.4118507 -1.0886817
