11

O -0.5134929 1.1277971 0.5220601
C 0.55522966 1.6977649 0.013382252
C -0.64230525 -0.29534897 0.3398896
O 0.89086187 -0.5876319 -1.5267493
C 0.5360027 -1.0328202 -0.24867693
N -1.7003891 -0.82657903 0.73362076
H -2.3482718 -0.13850573 1.118465
H 0.42785218 2.761981 0.29841655
H 1.3675823 -0.95832753 0.47033113
H 0.22908187 -2.0763202 -0.32133016
H 1.1978489 0.32799035 -1.3994092
