13

C -1.3282466 -0.9016864 -0.48659086
C -0.13087371 1.1340461 -0.13255703
O -1.0127878 0.31285366 -0.926167
C 1.3096586 0.6351698 -0.030741878
O 1.5850638 -0.16121612 1.0874469
N -0.80000645 -1.4637729 0.5223546
H 1.5639287 0.13685678 -0.9806161
H 1.9499575 1.5212442 0.051213868
H -0.16366366 2.0951138 -0.6524017
H 0.88251126 -0.83286864 1.1231374
H -2.104969 -1.331475 -1.1226621
H -0.5541706 1.2402138 0.87084603
H -1.1964018 -2.3844793 0.67673767
