12

N 2.03196632 0.35821052 -0.76297739
C 0.96228111 -0.20736610 -0.14846368
N 0.81769451 -0.76102937 1.01040956
C -0.57777724 -1.01641009 0.59370446
C -1.57916685 0.08664707 0.83365536
C -1.26609074 0.62311384 -0.35425915
N -0.31665455 -0.40644248 -0.76781608
H 1.85179412 0.95875778 -1.55118728
H 2.79136514 0.62562911 -0.15671243
H -0.90251938 -2.06240909 0.61726650
H -2.27525051 0.30968104 1.63078340
H -1.53764200 1.49161780 -0.94440310
