10

N -1.2286597 -0.7067924 -0.29220974
C -0.62825364 -0.0056569073 0.69693774
O -1.1195157 0.20350862 1.7852056
C 0.7646396 0.5579008 0.3781053
C 1.3054607 0.19177474 -0.92944056
N 1.6833972 -0.12555827 -1.97376
H -2.1414735 -1.09643 -0.10960569
H -0.78608775 -0.8838151 -1.1798855
H 0.7055933 1.6471688 0.45894894
H 1.4448997 0.2179 1.1657039
