10

N -0.84486618 1.12067652 -0.32733982
C -0.58122794 0.26081447 0.67669346
O -1.13317411 0.26443237 1.75803837
C 0.50276447 -0.78987807 0.40551659
C 1.54732724 -0.62136397 -1.96359160
N 1.09301098 -0.71940994 -0.88780395
H 0.04748558 -1.77434004 0.54829081
H -0.35723847 1.09826278 -1.20786231
H -1.54887349 1.82684598 -0.17102726
H 1.27479213 -0.66603982 1.16908570
