11

N -1.8189039 -0.71976936 -0.44378915
C 2.6299827 -0.43592098 0.58413345
C -0.5494019 -0.12861179 -0.27908438
N 0.30990675 -1.0900929 0.3872716
C -0.30694416 1.2916055 -0.34246308
N 1.4705821 -0.6937641 0.5455628
N 0.033673733 0.6640781 -1.3924139
H 3.2201877 -0.017615557 1.3834736
H -2.4896808 -0.0950818 -0.87342054
H -2.1757352 -1.0916629 0.42455554
H -0.3236671 2.3168356 0.0061740205
