11

N 0.68217891 -0.86652249 -0.46700609
C -0.55042359 -0.12327840 -0.27947774
C 2.70661048 0.34241426 0.07113574
N 1.69311317 -0.25196119 -0.10696969
C -0.72054078 0.97707068 0.63709839
N -0.52869687 1.33453786 -0.56607285
N -1.61200453 -0.90821112 -0.77461085
H -1.60379898 -1.83988573 -0.38528968
H -2.51585288 -0.47032259 -0.64783894
H 3.36125761 0.35409800 0.92762081
H -0.91184238 1.45206089 1.59141083
