12

O -0.4494484 0.051935855 -2.7807965
C 0.45996696 0.013584795 -1.720761
C -0.18516375 -0.07087652 -0.3643483
N -0.9176156 0.26895592 2.4432104
N 0.59004575 -0.3455991 0.7609373
C 0.27092385 0.061817072 2.0004916
N -1.3680733 -0.103834674 0.008771828
H -0.89206576 0.6548122 3.3848464
H 1.172541 -0.82183564 -1.7711648
H 1.17665 0.15039144 2.6150968
H 1.0300556 0.9459643 -1.7440999
H -0.8878166 -0.80531573 -2.832184
