10

N 0.76737434 -0.035153273 -1.43442
C -0.3952939 0.19564755 0.67120475
O -0.4869978 1.4911397 0.2956423
C 0.3255947 -0.6836026 -0.33367732
O 0.464996 -1.8704776 -0.109771445
N -0.8778581 -0.21433005 1.7606335
H 0.6125199 0.95011336 -1.5662047
H -0.7083547 -1.2147417 1.8457148
H 1.2560123 -0.5671343 -2.138204
H -0.9579927 1.948539 1.0090821
