12

N -1.547076 0.51726174 -0.40530878
C -1.2934492 0.7373747 0.8909163
C 1.2666858 -1.2782044 0.23017122
C -0.2894921 0.19342446 -1.1199892
N 0.03682604 0.6040954 1.145656
C 0.78516513 0.099062234 -0.007263098
N 1.6386315 -2.3564868 0.42849463
H -0.06801846 1.0127689 -1.8122659
H -2.1879525 -0.07846731 0.49100247
H -0.39814526 -0.7260029 -1.6991419
H 1.6533484 0.73087573 -0.22445467
H 0.40347645 0.54429877 2.0821826
