12

N -0.18718251 0.07477984 1.52432481
C 0.76727481 0.54604928 0.52167242
C -1.42054011 -0.21246769 1.08426159
C 0.01765657 0.18425587 -0.77951151
N 0.95821623 -1.95419080 -1.98539569
C 0.56076282 -1.01272958 -1.44863546
N -1.33209134 -0.04954943 -0.25827758
H 0.00168596 0.15208007 2.50953370
H 0.92039794 1.62827358 0.58877697
H 1.73135187 0.03841899 0.60196011
H 0.03610062 1.01353648 -1.49463406
H -2.05363285 -0.40845638 -0.86407513
