11

O 1.2316298 2.2547407 0.036212675
N 1.1260686 1.0696765 0.46949342
C -0.8908102 0.2223023 -0.85861766
C -0.11557194 -1.2142795 0.45158926
O -1.2029097 -1.1446372 -0.4912102
C 0.24291104 0.19833787 0.10416318
H -0.4715353 -1.389308 1.4746876
H -0.62983406 0.31317893 -1.9196287
H 1.8087792 0.7666629 1.1791497
H 0.6118541 -1.9886059 0.1776625
H -1.7105815 0.91193134 -0.6235018
