9

O 0.60334676 -1.82799920 0.27664852
C 0.16866822 -0.55551421 0.03187170
N 0.63017741 0.04612498 -1.14572381
N -1.45041236 0.58355974 1.62384427
N 0.33636499 1.25535726 -1.29158180
C -0.61859426 0.05825218 0.90753117
H 0.71041339 -2.24595284 -0.58890773
H -1.10494870 1.16547250 2.38833315
H 0.72498465 1.52069989 -2.20201522
