11

N -2.0888588 -2.1081438 -0.17032354
C -1.6202905 -1.0547593 -0.24177752
C 0.5286678 0.13155095 -0.43120033
C -0.9804868 0.26287445 -0.33244532
C 1.3734256 0.19642428 0.7601215
O 1.2512217 1.3048698 -0.12530316
H -1.3727089 0.7915059 -1.2083023
H -1.2370158 0.8579785 0.5507732
H 0.89167666 -0.41742158 -1.3004789
H 2.3432243 -0.2987515 0.7624378
H 0.91114515 0.33387256 1.7364986
