11

N 3.0324082 -0.31836382 -0.470759
C -1.7173295 0.033821497 1.2756716
C 1.9622997 0.11479568 -0.5356512
C -0.4205009 -0.33428857 -0.007977085
C 0.5927356 0.63076955 -0.60939956
O -1.7113944 0.1987642 -0.12806657
H -2.015332 -1.0384624 1.4237487
H -0.20721763 -0.30382168 1.1417147
H 0.5238596 1.588883 -0.08537226
H 0.3207945 0.8008286 -1.6582115
H -0.36032322 -1.3729261 -0.34569782
