9

O -0.30884597 -0.18628243 -1.5369084
C 0.8769887 0.5817067 0.4116682
N -1.3571112 -1.8222286 1.2907323
O 1.8864132 0.52226484 -0.2463057
C -0.46052423 0.16170166 -0.20332992
C -0.9802202 -0.9551821 0.6271475
H -1.1657609 0.9998783 -0.106394656
H 0.64956164 -0.2234176 -1.6975595
H 0.8594991 0.921559 1.4609499
