9

O -0.16412327 0.46116976 -1.50085319
C -0.47616853 0.00325980 -0.22983903
N -0.17713221 -2.60685262 0.03466015
O 1.31852164 1.38590202 0.48245004
C -0.32048846 -1.46797682 -0.09407269
C 0.43318623 0.64086524 0.82377427
H -1.51926494 0.24818796 0.01765919
H 0.23871846 0.37700840 1.87703559
H 0.66675089 0.95843635 -1.41081425
