11

O -2.5717676 0.18116742 -0.041197006
C -0.53872705 -1.2391586 -0.28384316
N -0.16204357 0.74935937 0.47586882
C -1.4561043 -0.25119105 -0.08725201
C 0.6385185 -0.524852 0.25989813
C 0.9973872 0.73081946 -0.42305654
H -0.6499067 -2.233383 -0.6902615
H 0.75819933 0.8509101 -1.4770948
H 1.8574711 1.29767 -0.063378185
H 1.2965026 -0.9130863 1.0378376
H -0.16952933 1.3517444 1.2924784
