9

O 0.8123977 0.8576855 -1.2458141
C -0.97778344 1.774958 0.086887866
C 0.4989494 -1.4851722 0.31101868
N 1.2270819 -2.4183388 0.5241294
C -0.014902019 0.6809901 -0.3983548
N -0.2794892 -0.52227485 0.2830544
O -0.9327372 2.8835673 -0.36195922
H 1.3552799 -3.219702 -0.067621164
H -1.6887972 1.4482865 0.868659
