9

O -2.5763428 0.6747637 0.29516008
C -1.6304996 0.09688837 0.76314205
C -0.30120218 0.04502251 0.09645938
N 0.76294273 -0.5492322 0.54220927
C 1.6597185 -0.27926576 -0.456656
N 1.1857947 0.42534855 -1.4407297
O -0.12659661 0.64759153 -1.077051
H -1.6615707 -0.4442955 1.725605
H 2.6877558 -0.61682135 -0.44813922
