9

O -2.91191353 0.85737415 0.31881506
C -1.93053935 0.22414028 0.58040071
C -0.65690259 0.34400723 -0.26980407
N 2.73724525 -0.33760747 -0.14937719
C 1.54142730 -0.41606226 -0.04809887
N 0.34176216 -0.50313589 0.24709887
O -0.56997310 1.04957418 -1.23336616
H -1.85109549 -0.47775303 1.43155016
H 3.29998920 -0.74053733 -0.87721866
