12

N -0.29284593 -0.83484125 1.7688909
C 0.09896896 0.29289204 1.0861886
O 0.84957427 1.1331842 1.5328974
N -0.49632382 0.37295777 -0.18537264
C 0.26803443 0.9362867 -1.2720591
C -0.06746874 -0.512148 -1.2573977
H -1.1424282 -1.2894545 1.4735683
H -0.10077586 -0.8214167 2.7589083
H -0.27918786 1.6127776 -1.9229336
H 1.294048 1.2187389 -1.0521922
H -0.86672574 -0.8986756 -1.8897783
H 0.7351305 -1.2103008 -1.0407199
