12

N 0.11105734 0.41008562 -0.2549736
C -0.80434555 -0.260408 0.34081912
O -1.8276875 0.3413644 0.97702205
N -0.83735156 -1.6261901 0.4079845
C 1.4869262 0.3176526 -0.66961986
C 0.7654595 1.6403877 -0.51976866
H 1.6670388 -0.07864906 -1.6702856
H -0.15373127 -2.0671177 -0.19378586
H -1.778664 1.2835999 0.75617534
H 0.99977964 2.152399 0.42402068
H -1.7641464 -2.0105073 0.29435256
H 2.135665 -0.102616824 0.10805944
