12

N -1.667352 -0.39539096 -0.92372096
C 0.4158737 0.8228477 1.3428396
O 0.43610737 -0.7691746 -1.7504926
N 0.22144665 -0.2593365 0.41636088
C 1.57771 0.2808922 0.4921055
C -0.35302153 -0.4647774 -0.73766285
H 2.15609 -0.42567182 1.1057823
H -2.2712367 -0.24179637 -0.1301783
H 0.27059773 0.5535655 2.3898206
H 1.3025146 -0.40020582 -1.4290868
H -0.02280565 1.7819777 1.0673163
H -2.0659244 -0.48292962 -1.843084
