12

C 0.11156284 0.07048963 -0.27154797
N -0.99271727 -0.7740737 -0.37742868
C -2.0629144 -0.5490293 -1.1954648
N 0.9435996 -0.06368938 0.706916
C 1.9658463 0.8122627 1.1083494
O -3.01478 -1.2916174 -1.2959327
H 0.23120828 0.8351152 -1.0329502
H 0.80892074 0.24082135 1.7966266
H -1.969667 0.39610752 -1.7606204
H -1.0236416 -1.6134984 0.18808457
H 2.2693834 1.6197056 0.44177598
H 2.7331996 0.3174061 1.6921921
