12

C -1.53086088 -1.27406384 -1.29718265
N -0.92112257 -0.47495223 -0.44160279
C 0.25457315 0.16079316 -0.47604665
N 0.55586012 1.01414881 0.60597237
C 1.55431811 0.73884659 1.50857240
O 1.93753384 1.50985367 2.35968741
H -1.05789180 -1.50301052 -2.24239728
H -2.47946291 -1.70391337 -1.01786960
H 0.86746081 0.10656271 -1.36672766
H 0.28115168 1.99330705 0.58147701
H -1.42456089 -0.28942303 0.42187790
H 1.96300131 -0.27814877 1.36423970
