9

N -0.6522406 -0.6112357 -2.4393706
C -0.5118187 -0.36327907 0.15941739
C 0.7302781 -0.6699736 0.9420852
C -0.6113784 -0.47418565 -1.2927452
N 0.31052697 0.78576857 0.58061427
H -1.4775963 -0.44606134 0.65497506
H 0.7171633 1.3289497 -0.1772904
H -0.033062633 1.3489103 1.3493346
H 1.528128 -0.89889306 0.22297989
