9

N -1.94353007 -0.61319079 -1.61128642
C -1.29707680 -0.26134959 -0.72049565
C -0.47434634 0.10804340 0.42739458
C 0.65381739 -0.72711183 0.95578577
N 0.88992674 0.50763575 0.03617264
H 1.28477846 1.32400533 0.48755517
H 0.77733259 -1.58429716 0.28046486
H -0.98019178 0.79448740 1.10420453
H 1.08928963 0.45177757 -0.95979555
