9

N 2.2791817 0.22629386 1.2047946
C -0.32858646 -0.38212627 -1.1753335
C -0.020935286 -0.59484875 0.2656428
C 1.2566535 -0.13601238 0.8024197
N -1.0349962 0.4650392 0.2247113
H -0.36737412 -1.5076634 0.75163907
H -1.5468504 0.17462087 -0.74106085
H -0.62064815 1.3951266 0.2354011
H 0.38355544 0.3595703 -1.568214
