10

O 0.62203577 1.22663758 1.22844070
C 1.18658582 -0.80886846 -0.06954037
C 0.34161697 0.31190889 0.22513768
N 1.33192196 0.15103233 -0.88619166
N -1.68228863 -0.60235528 -0.68739013
C -1.10235008 0.37529459 -0.07564909
N -2.18075400 -1.47267120 -1.22158494
H 1.60231107 -1.79823612 0.08701195
H 1.57812256 1.37290503 1.23629331
H -1.69720094 1.24435274 0.16347245
