10

O 1.4715627 -1.0784398 0.37806097
C -1.1544051 -0.3395077 0.54298407
C 0.3952054 -0.37218842 -0.044716176
N -0.31669796 1.7035652 -0.6220503
N -0.7372452 -1.1457609 -0.37388328
C 0.74651515 0.95608956 -0.5241874
N -1.4009707 1.5123297 -0.18545681
H 1.2516236 -2.0227818 0.30497223
H -2.0131345 -0.512666 1.1901994
H 1.7575468 1.29936 -0.66592264
