10

N 0.98357534 -0.2814959 -0.047691204
C -1.1887798 -0.1718972 0.3851458
N 0.40108743 1.7018802 -0.58008903
N -0.86113137 -1.445701 0.36725667
N 0.40685958 -1.5244691 -0.04529559
C -0.03645822 0.59304947 -0.00081315124
H 0.05878249 2.6012166 -0.26823986
H 1.4851462 0.6976439 -0.6816017
H 0.95300436 -2.3082461 0.27791867
H -2.202086 0.13801923 0.59340954
