10

N 0.60402040 1.45266110 0.30347093
C 0.54381950 0.68661337 -0.72784033
N -0.06713372 0.85502829 1.32975786
N -0.52719376 -1.57103161 -1.11401878
N -0.32833341 -0.49450621 0.96084306
C -0.13714258 -0.57848032 -0.42181050
H 0.49520524 0.90675357 2.17375308
H 0.94747235 0.99389322 -1.68346124
H -0.29529908 -1.43319358 -2.09522565
H -1.23541494 -0.81773774 1.27453135
