11

N 0.12963989 1.16374142 1.45930515
C -0.35435261 -0.86328135 0.55360939
C 0.12628644 -0.04863484 -0.44719516
N 0.39762902 -0.27653296 -1.79847572
N 0.39808543 1.14540654 0.13562060
C -0.31918783 -0.05025917 1.70913073
H -0.61700055 -0.31523054 2.71532217
H -0.68724591 -1.88675741 0.46010039
H 0.13043805 -1.21232708 -2.07549325
H -0.03455643 0.39716353 -2.41890670
H 0.83026449 1.94671158 -0.29301809
