12

N 1.0038606 -0.48214453 1.6935956
C 0.31468788 0.22623122 -1.7461147
O -0.9396188 -1.3308655 0.79387885
N 0.036454793 0.5461084 -0.14221907
C -0.04302524 -0.5221832 0.80776507
C -0.9896059 0.6792909 -1.1980535
H 0.27676773 -0.87881565 -1.727939
H -1.2847022 1.7217004 -1.3326973
H 1.080571 -1.2928094 2.2925806
H -1.8317091 0.014983939 -1.0071515
H 0.5057449 1.3834879 0.17529064
H 1.8705741 -0.06498467 1.3910645
