9

O 1.6810656 0.92737097 0.6061133
C 0.56342363 0.3095246 0.19380191
N 0.43002164 -0.24374966 -1.0012705
N -0.8103159 -0.7259563 -0.9569744
N -1.4809746 -0.5304411 0.15684003
C -0.62411183 0.13753767 0.9271058
H 2.3252094 0.8886372 -0.11267984
H -1.2105289 -1.2177142 -1.7402116
H -0.87378895 0.4547909 1.9272752
