11

O 1.9599605 -1.0500959 -1.0674574
C 0.12414553 0.098976836 0.25048473
O 0.4705658 1.503507 0.11915958
C 0.39759305 0.5037342 1.6334578
C 0.8432235 -0.79845166 -0.74695027
C -1.139156 -0.48448092 -0.36780435
O -0.32326475 -1.3264797 -1.2244465
H 1.4887872 0.39709166 1.7578077
H -1.7483913 -1.0729308 0.3211218
H -0.32218057 2.0334663 0.29031053
H -1.751283 0.1956629 -0.9656834
