11

O -1.7999231 0.6579107 -1.6424431
C -1.1582402 0.030846957 -0.8653586
O -1.2128134 -1.3122678 -0.61100614
C -0.21967119 -1.2402517 0.45359632
C -0.044388182 0.23512632 0.13945442
C 1.1275343 1.0985197 0.06828374
O 0.08919895 1.2977582 1.0271623
H 0.6278945 -1.8962361 0.24863677
H -0.66790354 -1.4622205 1.4238681
H 1.1878693 1.8519675 -0.7148764
H 2.0704422 0.7388467 0.4726825
