11

O -1.22136263 0.42298406 -2.10070699
C -0.36327385 -1.06709002 0.63010254
O -1.31520068 -1.19278187 -0.45916928
C -0.84015539 -0.07910973 -1.09287067
C 0.25289883 0.14398317 -0.05711508
C 1.65302756 0.57392049 -0.13463929
O 0.22321780 1.46829005 0.53894582
H -0.88077800 -0.88357333 1.57522979
H 0.29780363 -1.93354487 0.69562132
H 0.46620146 1.39078157 1.47358356
H 1.72762091 1.15614045 -1.06898182
