11

C -0.87944925 -0.7993087 -1.192392
C -0.1281923 -0.06506838 -0.1402226
C -0.2628342 1.1335664 0.471869
N 0.7601641 1.3039889 1.3992716
C 1.4457176 0.21960708 1.3000809
O 0.98210245 -0.66614336 0.39494488
H -1.2584947 -1.7547363 -0.81579196
H -1.730311 -0.19578207 -1.519564
H -0.24762385 -1.0051905 -2.0611851
H -1.0173625 1.8906678 0.31731874
H 2.3362842 -0.06160101 1.8456708
