11

N -0.037845943 1.5086856 -1.0345033
C 0.2602563 -0.80492806 -0.4757307
N -0.5825648 -0.30710933 2.0082486
N 1.3882132 -0.73721194 0.5687411
C 0.14210552 0.32000035 -1.4447712
C 0.19571818 -0.5444451 0.93460655
H -1.4727441 0.12226468 1.8121544
H -0.10736956 0.042798128 2.8291636
H 0.04838491 -1.7981261 -0.8715623
H -0.068491146 2.1542478 -1.821793
H 0.23433736 0.0438238 -2.5045543
