11

N 1.41372423 -0.70885130 -0.54129238
C 0.98593223 -0.09672542 0.47623249
N 1.33630780 0.77312542 1.44337075
N -1.22378310 0.84588128 -1.06517667
C -1.14166259 -0.40530716 -0.86156283
C -0.02303659 -0.96868552 -0.05549601
H 2.15943766 1.33037066 1.25875724
H 0.57381793 1.26586547 1.88046410
H -2.02721459 1.05677869 -1.65469757
H -1.85475104 -1.14021902 -1.26072425
H -0.19877197 -1.95223301 0.38012528
