12

O 0.44863378 -1.89777690 1.23826521
C -0.44159528 0.69379264 -1.78793926
C 0.07050048 0.35331777 0.46972159
C 0.39347152 -0.56019590 1.62545914
N -0.11675586 -0.16050698 -0.66890671
H 0.31437549 0.56117131 -2.56871070
H 0.01085591 1.43189816 0.66957352
H -0.50183360 1.76072106 -1.52495264
H 1.35380408 -0.24297414 2.06066277
H -1.40019953 0.37477514 -2.20875070
H -0.36995126 -0.40709624 2.40517978
H 0.23869416 -1.90712620 0.29039802
