10

O 0.98926157 0.50956935 -1.7953408
C 0.38413584 0.1821112 -0.65464836
C 1.1489091 -0.28072655 0.43367895
N 0.565086 -0.60527635 1.5665332
N -0.7586612 -0.49428192 1.6783316
C -1.4269547 -0.05487299 0.62614185
N -0.92168885 0.29939455 -0.56288934
H 0.29807535 0.79908013 -2.4129004
H 2.2267327 -0.3826847 0.377444
H -2.504896 0.027687201 0.7436493
