17

C -1.7390983 -1.2100834 -0.19363925
N 0.5764783 -0.26187462 1.2653528
C 0.25789267 0.15314882 0.005682178
O 1.0189068 0.93968725 -0.6424496
N -0.8024908 -0.21791083 -0.6487718
C -0.11704361 0.888172 -2.2736404
C 1.6657156 0.34869367 2.0015383
H -1.2452484 -2.111695 0.19731145
H -0.78021944 1.7200533 -2.0774872
H -0.18372658 -0.6498334 1.7986544
H -2.4256482 -0.82555616 0.57653224
H 0.8442451 1.1752032 -2.6918159
H 1.379499 1.3069795 2.452269
H 1.9928949 -0.33194467 2.7902694
H -0.58055437 0.07981355 -2.8307922
H 2.4963198 0.52143943 1.314168
H -2.357922 -1.5242926 -1.0431817
