11

O -2.01308 0.98811364 1.3782967
C -1.0792179 0.61251587 0.72446156
N -0.97732407 -0.5500696 -0.012543071
C 0.40622887 -0.8066666 -0.35633552
C 0.9437098 0.63001025 -0.32568666
O 0.08201982 1.3123114 0.5874865
H -1.609476 -1.2941008 0.23923378
H 0.9064841 -1.4448353 0.3818255
H 0.5088446 -1.2615479 -1.3456511
H 0.86190397 1.1082599 -1.3062361
H 1.9699068 0.70600855 0.035148248
