12

O 0.16257854 -0.5704114 -1.1213492
C 0.24358645 0.16367783 0.8730003
C -0.64866734 0.33642164 -0.3729699
O -1.9546428 -0.07689783 -0.2952398
C 1.0537542 -0.7904627 -0.011758615
O -0.71992326 1.5759301 -0.96137804
H 1.0604899 -1.8421458 0.29356876
H 0.75372005 1.0773165 1.1889193
H 0.18979393 1.8862377 -1.0893354
H -0.26942116 -0.28938425 1.7256625
H 2.0765712 -0.47574806 -0.24586645
H -1.9478393 -0.9945338 0.016746277
