12

O -1.77659194 -0.28484212 0.82237124
C 0.58915714 0.47121819 0.52830069
C 1.06713700 -0.68434337 -0.35813431
O -0.27189291 -0.91548241 -0.83497973
C -0.80565016 0.14820877 -0.04491524
O -1.43542454 1.09867394 -0.81152005
H 1.46255464 -1.56141726 0.16502322
H 0.67127612 0.31578685 1.60745427
H -1.40881098 -1.03418175 1.31498129
H 0.96200472 1.46482761 0.26657233
H 1.74608824 -0.41399577 -1.17418809
H -0.79984727 1.39554701 -1.48096548
