11

O -1.74854860 0.32290320 -1.56456656
C -0.71249330 0.46303884 0.71630917
C 0.41280686 -0.69150820 -0.74709223
N 0.58118587 -0.29355886 0.68213129
C -0.90547398 0.11249418 -0.73881957
C 0.57725057 1.19128527 0.97087404
H 0.83623081 -0.96372174 1.39349105
H 0.22354598 -1.76153197 -0.88052501
H 1.24405704 -0.36600719 -1.37506453
H 0.95645627 1.66925494 0.05737953
H -1.46501789 0.31735159 1.48588296
