11

N -0.96152210 0.36257825 0.07275258
C 0.54834751 -1.27233114 -0.59258723
C -1.68546105 -0.73856787 -0.40331880
O -2.87275964 -0.84183261 -0.52242057
C 0.38728421 0.05623706 -0.27568782
O -0.76894502 -1.69206694 -0.76596026
N 1.47229300 0.64365264 0.52620183
H 2.24960237 -0.01166033 0.36796130
H 1.25447244 0.66288431 1.52840978
H -1.38785680 1.24929667 -0.17006060
H 1.76454529 1.58181003 0.23470997
