12

O 0.8771397 1.963697 -1.2824546
N 1.0102468 1.4113795 -0.0058178785
C 0.30940384 0.36696815 0.10602193
C 0.13356595 -0.6080244 1.2429792
N -0.5630596 -1.5130343 0.2953787
C -0.5880754 -0.47828072 -0.77045864
H 1.4699248 2.7235622 -1.2394888
H -0.48895088 -0.21836539 2.0585124
H 1.0504098 -1.0315199 1.6661226
H -1.4835255 -1.7931913 0.60896105
H -1.5668857 -0.016781958 -0.9572741
H -0.16019373 -0.80640906 -1.7224817
