11

N 1.8495413 -0.115092196 -1.4346709
C 0.6002704 -0.13309781 -0.8705918
N -0.54676175 -0.24346595 -1.4423136
N -1.5016099 -0.06643925 -0.4355633
C -0.835346 0.095633306 0.6540202
N -1.2999278 0.19882335 1.9397494
O 0.5119141 0.07588319 0.47235253
H 2.5445454 -0.6506749 -0.9330394
H 1.8065526 -0.354644 -2.4153948
H -0.8249179 0.89017576 2.504827
H -2.3042603 0.30289853 1.9606248
