11

N -1.181986 2.225664 -0.30801886
C -0.75977445 1.0534668 -0.1354248
N -0.54442763 -1.0797695 0.67453617
N -1.3980595 0.00648186 0.4878254
C 0.48228106 -0.7454176 -0.008339601
N 1.5559139 -1.5229297 -0.31938472
O 0.45239523 0.5030607 -0.5463363
H 1.606731 -2.3638935 0.23374636
H -2.1297302 0.15995626 1.1605208
H 2.4304924 -1.0323123 -0.4237579
H -0.51383597 2.795693 -0.81536645
