10

O 0.47254993 0.64200239 -1.18617533
C -0.58830264 1.35545713 -0.90542640
C 0.74409024 -0.47540213 -0.33363587
O -0.24745949 -1.43982201 -0.26502861
C 0.04992046 -0.71698598 0.93914433
O -0.91092713 0.03244234 1.50804713
H 1.75686898 -0.81571219 -0.55195381
H -1.28866005 0.59154380 0.80541500
H -0.56672162 2.12325786 -1.70758759
H 0.57864134 -1.29678133 1.69720052
