11

N 1.05311860 1.57906881 -0.74100571
C -0.23543798 1.00503697 -0.85639958
C 0.99887174 -0.17206604 0.62197674
N 1.77062094 0.94739631 0.07144600
N -1.39350271 -0.89307852 0.21950995
C -0.33333830 -0.07246848 -0.05200455
H -2.16831333 -0.86001022 -0.42605175
H -0.96342269 1.45028658 -1.52030244
H 1.52801161 -1.10849140 0.41428734
H 0.93374980 -0.05565295 1.70973747
H -1.19035814 -1.82002105 0.55880629
