11

C -0.33204379 1.40620711 1.04838586
C -0.00511793 -0.52229893 -0.38501996
N 0.45626715 0.26960239 0.59934818
C 0.19948200 -1.61639195 -1.28775610
N -1.04749379 -0.77980537 -1.04971508
H -1.38512628 1.11617918 1.04401790
H -0.04281274 1.66449428 2.07069876
H -0.20559970 2.28437211 0.40365654
H 0.17895131 -2.64819906 -0.93193647
H 0.72901521 -1.46766998 -2.22962801
H 1.45447872 0.29351029 0.71794819
