11

C -0.30895773 -0.53027534 -0.21075077
C -0.7809924 -1.785704 -0.7156422
N 0.5620306 0.160549 0.5462866
C 0.54256517 1.6146511 0.5341436
N -1.3594059 -0.39151594 -0.89775956
H 0.98194224 1.9890758 1.4627148
H 1.4184078 -0.3118849 0.77971363
H -1.3380152 -2.473329 -0.076461084
H -0.497789 1.9431323 0.48046568
H 1.0889902 2.033612 -0.31951278
H -0.30877575 -2.2483108 -1.5831978
