10

C 0.90810339 0.38107269 0.92671315
C -0.29465724 -0.00437720 0.21707436
C -0.08693970 -0.29687001 -1.18734058
C 1.88585698 0.70655732 1.54481490
N -1.12778865 -0.64673860 -1.89435425
N -2.03117926 -0.94824158 -2.50170592
N -1.45623569 -0.09020024 0.75130203
H -1.40829213 0.15239537 1.74056113
H 2.75005362 0.99844217 2.10309561
H 0.86107849 -0.25203991 -1.70016076
