11

N -0.42447620 0.90450559 -1.77690065
C -1.01056422 -0.02362966 -0.88404805
C 1.01176465 0.60928663 -0.11065903
N 0.70260967 1.28268456 -1.37748251
N -0.28863118 -1.10519753 1.21859178
C -0.18461002 -0.24832367 0.15823557
H -1.98463599 -0.43636203 -1.10819479
H 1.19208188 1.36952888 0.65652751
H 1.93337988 0.02911776 -0.23203076
H 0.25617049 -0.89784706 2.04007773
H -1.20308912 -1.48376356 1.41588307
