11

N -0.8745852 0.9889609 -1.3427781
C -0.28040826 0.23938373 -0.31251696
C 1.015613 0.3014474 0.15430902
N 1.0766978 -0.55832213 1.2097281
N -0.07681838 -1.175727 1.4543502
C -0.9098814 -0.7002941 0.53957355
H -1.5607984 0.4557087 -1.8613137
H -0.19383241 1.3653818 -1.9883051
H 1.8712007 0.8766959 -0.16623682
H 1.8710551 -0.755823 1.7939979
H -1.9382427 -1.0374123 0.5191918
