12

O -0.719011 -1.602376 -0.6151471
C -0.445281 1.3600272 -0.26877853
C 0.41167936 -0.84351474 -0.9768384
O -1.1388454 1.5219686 0.8456418
C 0.59545213 0.31422967 0.016397515
O 0.6136345 -0.25032246 1.3118562
H -0.045324147 0.22567722 1.8352052
H -1.8121268 2.1997423 0.6966548
H 1.328066 -1.4509244 -0.9804771
H 0.2426499 -0.45169514 -1.9813644
H 1.5588853 0.80593944 -0.1990597
H -0.589779 -1.8287518 0.3159101
