11

O -1.2641137 -1.2090923 0.37380975
N 1.0972445 0.97352344 -0.4895552
C 0.19696294 0.14238423 -0.18351188
C -0.55852735 -0.16179587 1.0765913
O 1.6206149 1.8729668 0.4237425
C -0.5754234 -0.9506875 -0.864385
H -1.2266811 0.63352644 1.4270977
H 0.043864872 -0.54206645 1.9090518
H 1.9087505 1.6772782 -0.80786026
H -1.2549841 -0.62642694 -1.6597471
H 0.012291713 -1.80961 -1.2052336
