12

O 0.85750509 1.45352380 -2.08340656
C 0.08245580 1.19528315 -0.94067256
C 0.68080183 0.16285031 -0.05908374
N 1.56887632 -0.70747309 0.05230948
N -1.49790019 -1.26373628 0.63450824
C -0.48782848 -1.28146367 1.39332451
N 0.55993520 -0.32734370 1.24815894
H -0.88943449 0.81625003 -1.27263471
H 1.72643001 1.76571886 -1.80414164
H -0.09353576 2.09577957 -0.33229738
H -2.17763237 -1.97222198 0.90763500
H -0.32967301 -1.93716690 2.25630000
