11

N -1.1949786 0.31150258 1.6627599
C 0.43862525 -0.45322 0.41055545
C -0.866072 1.4557663 -2.4612226
N -0.0027741324 0.7275644 -2.125348
C 1.2083349 -0.6057202 -0.78128976
N -0.6371045 0.2867545 0.48219433
N 1.0469767 -0.084866285 -1.9753479
H -0.8422115 -0.21963526 2.451525
H -2.0386693 0.8493025 1.7795194
H 0.8107376 -1.0095292 1.2812061
H 2.0771356 -1.2579193 -0.7245523
