10

N -1.36083970 -0.12742066 0.34110497
C 0.83595987 -0.14654616 -0.55015723
C 0.82453265 0.59980798 0.56342593
C -0.55867243 0.56904481 1.06347244
C -0.56036852 -0.65680341 -0.75529303
H -0.61332366 -1.75255966 -0.74235544
H 1.67898096 -0.35921640 -1.19705720
H 1.64779920 1.12891095 1.02760077
H -0.90251753 1.07955809 1.96087911
H -0.99155061 -0.33477544 -1.71162056
