10

N -1.2567863 0.5332184 0.3473324
C -0.31177208 0.44509986 1.213089
C -0.7164244 -0.0011164607 -0.8958828
C 0.69901633 -0.40752554 -0.606858
C 0.93408304 -0.13093749 0.6836788
H -0.7848175 0.76145726 -1.6820037
H -1.3368443 -0.8442718 -1.2242448
H 1.382045 -0.8433631 -1.3265178
H -0.4516002 0.7760503 2.2402754
H 1.8431002 -0.28861132 1.2511317
