10

O 1.30244374 0.75175204 1.43975880
C 0.36067451 0.40466305 0.54709494
C 0.22218318 -0.06752517 -0.82769918
O -0.05198238 1.30903712 -0.43482753
C -0.95381710 -0.86844314 -0.29397833
O -0.71419472 -0.33196710 1.04395824
H -0.80062335 -1.95028523 -0.30767960
H 1.69480041 1.58585215 1.15203885
H 0.88671053 -0.24175714 -1.66331193
H -1.94619491 -0.59132632 -0.65535404
