11

C -0.28816218 1.17056108 -0.13232422
N -0.07968095 -0.15378053 -0.06325017
C -0.83504019 -1.25120304 -0.63086722
N 1.02445901 -0.40621399 0.66979464
C 1.41951377 0.80705499 1.00116647
N 0.64851831 1.81911637 0.53371178
H 2.30278903 0.97005305 1.60562520
H -1.11696146 1.61535802 -0.66590585
H -1.69572895 -0.84639850 -1.16663996
H -1.17642024 -1.91046241 0.17018421
H -0.20328639 -1.81408535 -1.32149482
