10

N -1.0243059 -1.3790045 0.29952693
C 1.709908 0.53658247 -1.0894517
C -0.14867246 0.87446994 0.97336584
O 0.60124385 1.8181771 0.77052754
C -0.18555471 -0.27437386 0.082630485
N 0.7236916 -0.1646073 -0.84777445
H -0.8106649 0.8265623 1.8520429
H -0.6140612 -2.2410476 -0.03717028
H 1.6937574 1.2696567 -1.8955134
H -1.9453418 -1.266415 -0.10818377
