10

N -0.21738012 1.5245736 0.25015226
C 0.083168685 0.17992531 -0.0091436505
C -1.603767 -1.6616777 0.0022099218
O 1.8216164 -1.3445954 -0.54235786
C 1.4678869 -0.21187583 -0.31554547
N -0.7974868 -0.74556017 0.092170455
H -1.2040516 1.6809195 0.40730518
H 2.1733396 0.6459616 -0.323796
H -1.8383979 -2.212876 0.9172274
H 0.11507201 2.1452053 -0.47822216
