10

N -0.56454885 1.1676459 -1.2886277
C -0.15625298 0.24913748 -0.3260421
C 0.68426716 -0.814064 -0.39455622
O 0.6886534 -1.4139432 0.8461579
C -0.15062493 -0.67393416 1.5750283
N -0.6825917 0.32304212 0.95273554
H 0.151752 1.4191756 -1.9544592
H -0.9710964 1.98803 -0.861504
H 1.3018253 -1.2681937 -1.1516212
H -0.3013829 -0.97689587 2.6028886
