11

C -0.12875606 -0.50244915 -0.053697575
C -0.042683955 1.934075 -0.46331713
C 0.74693894 0.6999635 -0.3162465
O -0.878695 -0.78318256 -1.1476407
C -0.1245361 -1.1768144 1.0913974
N -0.6510893 2.9060817 -0.56679463
H 0.5162155 -0.8692638 1.9107615
H -0.76205343 -2.0426178 1.2480577
H 1.3105935 0.5471328 -1.2442743
H -1.4500431 -1.5374622 -0.95540345
H 1.4641091 0.82453716 0.49715775
