11

C 1.2972887 0.6389799 0.5738699
C 0.102615766 -0.29154685 0.41149768
C -0.7478943 0.049184054 -0.784159
O -0.5402845 0.9438797 -1.5606515
C -1.9320767 -0.8312073 -0.9747225
N -2.8466728 -1.5203042 -1.111294
H 1.9477648 0.60025644 -0.3044737
H 1.8811758 0.3454332 1.4505997
H 0.9759397 1.6754242 0.70252657
H -0.551453 -0.27186528 1.294727
H 0.41359636 -1.3382342 0.30207986
