10

N 1.2954476 -0.11341455 0.112058654
C -1.0783793 0.30730093 -0.0042807283
O 0.40396628 1.9112381 0.8686509
C -0.013122611 -1.6327803 -0.69447416
C 0.34520972 0.78889495 0.37955612
N -1.0145738 -1.0478613 -0.5848952
H -1.5250297 0.97468394 -0.7440898
H 2.2233372 0.2147565 0.35939524
H -1.7259783 0.2699863 0.8745616
H 1.0891229 -1.6728044 -0.5664828
