10

N 0.24979083 1.0838748 0.22692646
C -0.94242465 0.40261468 0.01573358
O -2.0515032 0.8739758 0.03361349
C 1.3047168 0.18326198 0.120155774
C -0.47264454 -1.0316678 -0.2317515
N 0.98424846 -1.0230973 -0.13713664
H -0.9078586 -1.7098632 0.50827146
H 0.30774707 2.0679455 0.4295706
H -0.79675066 -1.3752035 -1.2197466
H 2.3246787 0.52815926 0.25436336
