11

O -0.28055727 1.643231 2.1679566
C -0.21366578 0.86889845 1.2358518
C 0.7526368 1.0181587 0.1375927
C 0.7798303 0.13405846 -0.87174815
N -0.102090634 -0.921088 -0.8776238
C -0.9930723 -1.0442872 0.15366215
N -1.0858904 -0.24628194 1.1490301
H 1.4348893 1.8592951 0.16467895
H 1.4646767 0.18714891 -1.7127675
H -0.100080304 -1.5954065 -1.6231033
H -1.6566763 -1.9037269 0.07647073
