11

O -2.110143 -1.442719 0.084725834
C -1.0513505 -0.92754275 0.35463277
C -0.16637968 -0.36393344 -0.8803616
C 0.22716253 0.95101213 -0.8020278
N 0.66988313 1.1227204 0.49192077
C 0.70819765 -0.2877797 0.79159445
N -0.31725097 -0.825601 1.4851162
H 0.19702299 1.7357917 1.14786
H -0.21158242 -0.939014 -1.801442
H 1.7048888 -0.73278135 0.6986874
H 0.34955138 1.7098471 -1.5707061
