11

C -0.77330330 -0.83685429 -1.25565195
C -0.53778875 0.17111982 -0.21401194
N 0.61911623 0.97779490 0.26351879
C 1.53293877 0.26832479 1.05689892
C -0.81324321 1.02383885 0.70007082
O 1.80699500 -0.89504296 0.89556779
H -1.83898781 -1.04934708 -1.35749653
H -0.23480732 -1.75247022 -0.99332067
H -0.38233305 -0.47159118 -2.21108936
H 2.04662605 0.91453753 1.79280694
H -1.42521297 1.64968973 1.32270746
