10

N -0.5168771 -0.032776583 -0.11450621
C 0.85253733 0.021728417 0.21463782
O -2.589557 -0.018962346 0.16198593
C -1.476056 0.09803012 0.7660019
O 1.2620325 0.19952911 1.3432517
N 1.6402843 -0.16169304 -0.874848
H 1.2483158 -0.18502472 -1.800487
H -1.676791 -0.15275593 -0.77658916
H -1.3759097 0.2783946 1.8342682
H 2.6320217 -0.046469614 -0.75371516
