10

O -0.46822459 -0.737965 1.6354202
C -0.91586107 -0.70277727 -0.6673003
C 1.1306708 0.6691339 -0.03700985
N 0.1876051 1.2477272 0.6229768
N 0.5509472 0.41862932 -1.9577161
C -0.24526203 -0.081534185 0.47352788
N -0.42779222 -0.23027459 -1.7775245
H -0.34815896 -0.096535034 2.3547258
H 2.1620655 1.0220517 -0.056848448
H -1.6259899 -1.5084561 -0.59025156
