10

O -0.23249748 1.6824346 0.7172583
C 0.18624604 -0.5831505 0.99372
C -0.03625597 0.38058904 -1.3848286
N 1.0181742 -2.7106433 0.17607377
N 0.6235279 -1.7198274 0.56550044
C -0.19340639 0.473462 0.03735438
N -1.2309457 0.19719476 -1.0005907
H 0.5010665 0.4128906 -2.3262615
H 0.06909376 -0.4522527 2.05859
H -0.7050028 2.3193028 0.16318391
