12

N 1.2776967 -0.7836381 -1.7217257
C -1.4281528 -0.90043974 0.38668123
N -0.8458955 -0.8690749 -0.78795296
C -0.8387789 -0.121540785 1.4614885
C -0.0412605 0.9852263 1.0144732
C 0.41177517 -0.2628556 -0.82150495
N 0.72000515 0.7961221 -0.12198782
H 0.2138774 1.837611 1.6414021
H 0.86787754 -1.368713 -2.4304185
H -1.2561618 1.1655034 0.8310213
H 2.110575 -0.25850114 -1.9341785
H -1.1915573 -0.21969934 2.4827023
