11

N -1.1262317 0.4323974 -1.8810408
C -0.133843 1.0020999 0.39438623
C -0.4900186 0.25771934 -0.76960236
N 0.07890313 -1.0109925 -0.4929895
C 0.7082835 -1.0399424 0.69276834
N 0.58490056 0.16555578 1.2240531
H -0.3373901 2.027434 0.6572848
H -0.008477339 -1.7745669 -1.1427478
H 0.967455 0.4320429 2.1177142
H 1.2281075 -1.8777293 1.1281109
H -1.4716889 1.3859818 -1.9279374
