11

N 1.1495154 -0.023408914 0.90934914
C 1.0432446 0.05094693 -0.49314862
C -0.07292312 -0.071739495 1.4575653
N -0.961894 -0.04283596 0.48572844
C -0.31630135 0.060653243 -0.7455353
N -1.335718 0.1911352 -1.598344
H 1.9160391 0.11699953 -1.1221509
H -0.26580697 -0.1490122 2.5166852
H -1.2251866 -0.07931612 -2.5629745
H 2.014733 -0.06641823 1.4234581
H -1.9457022 0.012996018 -0.2706327
