11

N 0.84934616 1.1010895 -1.7350603
C -0.5517328 -0.75663984 1.097487
O 0.20657639 1.7848934 0.1359616
N -0.8493053 -1.9416022 1.4346591
C 0.34123862 0.72910506 -0.5903607
N -0.0122038005 -0.51203346 -0.1612459
H -0.66589034 0.15472272 1.6863651
H -1.2232951 -1.9438074 2.3805351
H 0.7118954 2.2012794 -0.9765848
H 1.0844436 0.49456152 -2.5052483
H 0.10892731 -1.3115687 -0.7665083
