11

N 0.48068181 -1.18173514 0.97931424
C -0.84068947 1.11331778 -0.11973979
O 1.30392595 -1.54169636 -1.06187484
N -1.12024289 2.29786937 -0.48432048
C 0.57541452 -0.71170517 -0.30336255
N 0.07149918 0.34515753 -0.82552107
H 0.33405050 -0.50328849 1.70971980
H -1.33681617 0.60917708 0.72650443
H -1.82474521 2.69214628 0.12987475
H 1.09797617 -1.94342487 1.20885443
H 1.25894561 -1.17581782 -1.95944880
