11

N -0.6291817 -0.7127744 -1.9376192
C -0.32554576 -0.2764356 -0.798671
C 0.70620465 -0.8763316 0.13212386
O 0.4390355 -0.24476773 1.3698678
C -0.12951517 0.9904763 1.0490627
O -0.8466832 0.81304604 -0.16862091
H -1.3316487 -0.12910588 -2.3846946
H 0.58682364 -1.9555396 0.23807138
H 1.71844 -0.6511089 -0.23075205
H -0.82510895 1.279824 1.8378019
H 0.63717955 1.7627174 0.89342993
