10

O 0.76826554 -0.56345648 -1.39350982
C -1.42605991 -0.21415603 -0.53455284
C 0.62238835 0.15122308 0.83469017
C -0.01692022 0.22645297 -0.53235507
N -2.52806827 -0.54697723 -0.62968057
N -0.05311791 -0.09671159 1.86912015
H 0.53722705 -0.09957755 2.70000670
H 1.70058233 0.35343506 0.80250600
H 0.40381818 -0.49803097 -2.28381971
H -0.00811503 1.28779882 -0.83240438
