11

N -0.19526853 1.59052 -0.14969884
C -0.8592211 0.47739866 -0.526348
C -0.16720739 -0.64351755 0.028124392
N 0.8742206 1.3443718 0.63034743
C 0.904532 0.043487765 0.7846814
N -0.60529613 -1.9718916 -0.017863201
H 0.09570695 -2.5383391 0.46271905
H 1.6910015 -0.42106116 1.3671684
H 0.35757473 -0.9006908 -0.95843554
H -1.7285483 0.4855698 -1.1647567
H -0.36749434 2.5341525 -0.45593846
