11

N 0.29575327 0.30772397 1.9994868
C 0.11482178 0.10526986 0.7640892
C -0.6366522 0.8442034 -0.34202394
N -0.42822513 0.08153339 -1.576217
C 0.292812 -0.91550255 -1.2479343
N 0.6488052 -0.99155706 0.09088909
H -0.17725709 1.1588591 2.299773
H -1.7074881 0.9091405 -0.11627215
H -0.2634987 1.868188 -0.46212798
H 0.62958634 -1.6826775 -1.9386138
H 1.2313427 -1.6851814 0.52895105
