11

N 0.99078095 -0.8481644 -1.5283142
C 0.24835595 -0.22370048 -0.5558556
C 0.5892768 -0.27587408 0.8129235
N -0.116960794 0.38409942 1.7029284
C -1.1501644 1.0877169 1.2090149
N -1.511461 1.1581308 -0.062391426
N -0.80314845 0.48169842 -0.9613291
H 1.5290439 -1.6580774 -1.2678069
H 0.54061925 -0.90299934 -2.429972
H 1.4373796 -0.8566766 1.1683033
H -1.7537223 1.6538467 1.9124992
