10

O 1.94769634 -0.07564776 -0.38772692
C -1.36587206 -0.30648108 0.35351558
C -0.51364032 -0.31569325 -0.66638714
C 0.67905763 0.46379968 -0.20501475
N 0.36349315 0.76796567 1.21507734
N -0.79101250 0.37560417 1.48702974
H -0.64042391 -0.73204814 -1.65616710
H 1.99641388 -0.90610410 0.10458666
H 0.68538419 1.44635314 -0.69707095
H -2.36109645 -0.71774848 0.45215754
