10

O -0.43694958 1.9223161 -0.50922936
C 0.53888124 -1.2303115 0.6397889
C -0.19155991 0.6159178 -0.27698556
C 0.9633914 0.034133658 0.28911453
N -0.7557415 -1.4490296 0.31979382
N -1.256222 -0.3379381 -0.2047136
H 1.9298457 0.49874502 0.41087142
H -0.5126745 -0.08261354 -1.2813652
H 1.116737 -2.0258706 1.093227
H -1.3957081 2.0546503 -0.4805022
