10

O 1.9865333 -0.014760061 0.05516608
C 0.6769385 0.21727881 0.46130753
C -0.34131116 0.6106276 -0.5640931
C -1.3880181 -0.18104507 -0.35374972
N 0.051322587 -0.94835675 1.1385504
N -1.1079928 -1.1192509 0.7054546
H -0.23088929 1.4198618 -1.2726387
H -2.3542838 -0.22558907 -0.83716375
H 1.9818747 -0.74806815 -0.5746286
H 0.72582585 0.9893017 1.2417954
