10

O -0.7928793 -1.7361363 -0.7456323
C -0.2995437 -0.5865886 -0.23474099
C 0.8626724 0.12392758 -0.42181328
C 0.71012664 1.2362573 0.44421437
N -0.4340269 1.2151417 1.1028738
N -1.0396936 0.085570045 0.6710592
H -0.15322459 -2.095331 -1.3722734
H 1.6879528 -0.11822877 -1.074984
H 1.4039146 2.0505595 0.6046041
H -1.9452984 -0.17517161 1.0266925
