11

O -1.28870621 1.58794242 -1.55284358
C -0.36757842 0.47185650 0.44252451
C -0.94488769 0.44497185 -0.89295589
N 0.41996064 -0.58458409 0.89968665
C 1.66613295 -0.87445290 0.63764139
O -1.72629689 0.05008982 0.22030585
H 2.16204362 -0.36679568 -0.17987844
H 2.19755414 -1.57080993 1.27103386
H -0.02356049 -1.09791528 1.66021209
H -1.34417809 2.28698542 -0.88807952
H -0.75048354 -0.34728831 -1.61764689
