10

O -0.93708901 0.00813931 -1.64525277
C 0.65645931 -0.84656401 0.10575461
C 1.42927079 -0.11759914 0.96891731
C -0.57786654 -0.08907855 -0.30413330
N -0.38825823 1.24257460 0.25210568
N 0.65903765 1.11813451 0.93857194
H 0.82352347 -1.87881316 -0.17358469
H -1.21238437 -0.86714491 -1.93841011
H 0.94862981 1.92816226 1.47649552
H -1.40132294 -0.49781085 0.31953568
