10

O -1.9598824 -0.07527921 0.21336259
C -0.695846 -0.26877207 -0.24770431
N 1.3697509 1.2680075 -0.2696287
C 0.39694604 0.39772564 0.5200722
C 1.7737396 0.15993735 0.14883356
N -0.42920798 -0.99327177 -1.2499894
H 2.645537 -0.47681096 0.12055386
H 0.15247649 0.74076927 1.5268952
H -1.2873657 -1.3492292 -1.6713573
H -1.9661477 0.59692335 0.9089625
