9

N 0.62790352 -0.25350150 -1.82680957
C -0.80880046 0.60228859 -0.31570642
C -0.20317971 0.07756387 0.72187939
C 0.39098902 -0.43910570 1.75547639
N -0.40881766 0.42039366 -1.67285137
H -1.69087612 1.22458378 -0.21179406
H 0.78691285 -0.30249818 -2.84394781
H 1.19183761 0.09155329 2.26543803
H 0.11403099 -1.42127783 2.12831561
