9

N -1.0497121 -0.49105757 0.17298111
C 1.1882676 0.5195308 -0.16940823
C 0.8061589 -0.5436611 0.62166744
C 0.15346955 1.0704237 -0.83398646
N -1.1016209 0.46034655 -0.61865944
H 0.1476325 1.9123862 -1.517523
H -1.9428653 -0.9583345 0.32489336
H 1.0560647 -1.5607327 0.31692034
H 0.742605 -0.40890148 1.703115
