9

N -2.1962955 0.3099029 -1.433616
C -1.2760923 0.45003727 -0.7492217
C -0.10267024 0.6222238 0.08584436
C 0.47041175 -0.576756 0.7565542
N 1.174291 0.055371244 -0.34454837
H -0.03307446 1.5938474 0.5676555
H 0.92694217 -0.45440173 1.7353368
H -0.025265431 -1.5290555 0.588212
H 1.061753 -0.4711692 -1.2062169
