9

N -0.49006218 0.13509636 1.9775865
C 0.06523413 0.26019427 0.9022247
C 0.6472429 0.48953673 -0.30743828
C 0.37716955 -0.7302018 -1.2805214
N -0.29256502 0.48135915 -1.4494195
H -1.2765325 0.52491915 -1.1582506
H 1.5663204 1.0613804 -0.37280104
H -0.26849777 -1.524504 -0.84796286
H -0.32830963 -0.6977804 2.5365822
