11

O -1.28057581 0.30676404 -0.22006929
C -0.54922768 0.84166134 0.91628369
N 0.55358001 -1.17718793 0.08398330
C -0.08022298 -0.21570805 -0.74304207
C 0.75079712 0.24916010 0.39526077
O -0.04962207 -0.28807122 -2.09684784
H -0.93184301 0.44678349 1.86297413
H -0.07482891 -1.66914875 0.71703786
H 0.48094615 -1.06373025 -2.32665722
H -0.57666724 1.93475484 0.91177197
H 1.75766444 0.63472198 0.49930432
