11

O -0.1835639 -1.5508469 -1.4294741
C -0.76666516 1.0039972 0.5038204
N 1.0751042 -0.60408664 0.42249927
C 0.57008284 0.66227883 -0.13564846
C -0.06151927 -0.64939976 -0.42375988
O -1.2777219 -0.32463375 0.21082874
H 0.8715601 -0.7461887 1.4104558
H -1.3393449 1.764117 -0.03458697
H 1.2507315 1.3161159 -0.6671363
H -0.7662554 1.2066907 1.579674
H 0.62759185 -2.0780437 -1.4366724
