11

O 0.46312633 -1.0930382 -2.3372664
C 0.80732393 -0.14592211 -1.6620342
C 0.2659796 0.10593175 -0.33634514
C 0.47432378 1.0712854 0.6234835
N -0.30955544 0.8371874 1.7163986
C -0.9859873 -0.2565122 1.4264073
N -0.67661 -0.73640716 0.20436175
H 1.5576384 0.5844295 -2.0179765
H 1.1459898 1.916542 0.5810096
H -1.7091628 -0.7327359 2.0744872
H -1.0330663 -1.5507609 -0.27252582
