11

O -1.80189861 1.76025672 0.91805431
C 1.50767791 -0.66610315 -0.54591865
C -0.15113184 0.04681094 0.64221012
C -0.80693377 1.40226415 0.35930604
N 1.28266580 0.11230230 0.43783987
C -0.59333482 -0.94020524 -0.40348504
N 0.39232594 -1.35199144 -1.10950494
H 2.49241006 -0.83681815 -0.96620844
H -0.29946087 1.99635100 -0.42927608
H -0.40545766 -0.25695146 1.66209791
H -1.61686213 -1.26591609 -0.56511522
