11

O -0.68258995 1.8175718 1.8489645
C -0.8988092 -0.76225466 -0.09970996
C 0.20389038 -0.042493243 0.62776506
C 0.8527583 -0.7724363 -1.3003687
N -0.5107715 -1.1844518 -1.2445835
C -0.20176567 1.4212885 0.82814085
N 1.3199565 -0.14960906 -0.29134026
H 0.43572158 -0.4764749 1.6050258
H -0.04398418 2.0623534 -0.0643111
H 1.4337766 -1.0083799 -2.184808
H -1.9081827 -0.9051142 0.27522513
