10

C 0.8691792 0.55733097 0.9268072
C 0.70307565 -0.7665362 0.9154744
N -0.48147604 0.8060382 0.47571138
C -0.8141586 -0.56382287 -0.9721377
C -0.6438745 0.75947666 -0.9641195
N -0.66953176 -0.6652415 0.46990374
H 1.5872608 1.3006446 1.2357984
H -1.0754367 -1.3615993 -1.6503406
H -0.69391567 1.6059426 -1.6312785
H 1.2188777 -1.6722331 1.1941811
