11

O 0.25647008 1.3861601 0.15672047
C 0.32507652 -0.7294332 0.027434839
C 0.98126996 0.46143937 -0.7036709
O -0.34475622 -1.7190356 -0.6833495
C -0.4755025 0.36060566 0.705029
N -1.4928509 0.3668038 1.4377693
H -1.7833656 1.3203706 1.6526395
H 1.0113852 -1.2313944 0.7159635
H -1.2019355 -1.3763924 -0.963137
H 0.6645585 0.5695416 -1.7454215
H 2.0596507 0.5913345 -0.59997797
