11

N 0.8306612 -0.4669746 0.2054447
C 0.091283254 -0.39957324 -0.86922365
N 0.4187143 -0.92143506 -2.0661407
N -1.2028704 0.45411327 0.6381022
C 0.02840208 0.2096493 1.0946966
N 0.12135541 0.90444106 2.2100768
O -1.102145 0.20764662 -0.77552086
H -1.1324899 1.2731553 1.6282662
H 0.66280556 0.5446038 2.9869902
H 1.381964 -1.1869408 -2.177697
H -0.097680345 -0.6186856 -2.8749945
