10

C -0.028752059 -0.18832871 0.053490385
C 0.70204186 0.5034084 1.078862
C -0.40552276 0.54574037 -1.1308578
C -0.7279558 1.1374252 -2.1221807
N -0.3054509 -1.4306287 0.26259908
N 0.9238128 -0.37300652 2.051204
N 0.65194625 -1.5029387 2.1800444
H -0.8278109 -1.884978 -0.48100093
H 1.0322322 1.5280885 1.1131458
H -1.0145404 1.6652184 -3.0053065
