9

N 0.8878774 1.1182624 0.52235776
C -0.10365444 0.32184198 0.98410445
O -0.56573534 0.32349738 2.104574
C -1.3351741 -1.5305665 -0.5497897
C -0.687375 -1.6594812 -2.2161527
C -0.6354159 -0.618327 -0.010590081
N -0.09296924 -0.7864151 -1.5827782
H 1.2289214 1.0613402 -0.42160442
H 1.3035253 1.7698478 1.1698791
