10

O -0.09419544 -1.238593 -1.7343928
C -1.1105955 -0.42073154 0.32420903
N 0.5660489 0.9037532 0.8428473
C -0.82070583 0.43487284 1.3346926
C -0.035748243 -0.46411175 -0.65431106
N 0.9809554 0.29677498 -0.39914733
H -2.01136 -1.0145789 0.22937432
H 0.5455969 1.9179481 0.7327369
H 0.7221165 -1.116887 -2.2418025
H 1.2578872 0.7015531 1.5657935
