10

O 0.7059143 1.9448119 -0.62995136
C -0.40096256 -0.9375162 1.1527534
N -0.6076275 -1.147676 -0.29024503
C 0.23363732 0.7561863 -0.24146302
C 0.23999284 0.2861178 1.1004734
N -0.27029368 -0.10055317 -1.1050144
H -1.307547 -1.7903564 -0.6392079
H 0.6614715 0.821507 1.9402456
H 0.5740582 2.0146277 -1.5874836
H 0.17135654 -1.847149 0.2998927
