12

O -0.63162501 -0.07997084 1.25236576
C 0.64669983 0.89201147 -0.66887954
C 0.67222136 0.18313199 0.68113875
O 0.62605438 0.03832798 -1.77843710
C -1.43184079 -0.94744412 0.64485850
O -1.23807166 -1.48012501 -0.42145656
H -0.19363661 1.60627213 -0.66461037
H 1.56877806 1.47831136 -0.74323077
H -0.05883562 -0.63074902 -1.60937070
H 1.22278767 -0.75792243 0.59497203
H 1.13496253 0.81416464 1.44310312
H -2.31749435 -1.11600818 1.26954664
