12

O -0.8840264 0.5392996 0.94943076
C 0.91809946 0.44681492 -0.7866097
C -1.6781191 -0.45844606 0.5808651
O -1.361321 -1.4297017 -0.063048445
C 0.53601015 0.43171278 0.68970007
O 0.981612 -0.81588376 -1.3881726
H 0.9317711 1.3108714 1.2029005
H 0.17042027 -1.2904077 -1.1389402
H -2.6905093 -0.26839817 0.9576664
H 0.23347063 1.1348035 -1.3103529
H 0.9194065 -0.47705746 1.1622202
H 1.923186 0.8763928 -0.85565907
