12

O 0.03307033 1.2177068 -0.71722245
C -0.5081089 0.040681303 -1.222337
C -0.07788742 -0.46155387 0.9530532
O 0.254771 -0.93035275 -1.5843852
C 0.45510873 0.95741975 0.6133638
O 0.6677708 -1.4678128 0.65197927
H 0.7090746 -1.3488082 -0.59978056
H -1.3685656 0.24906972 -1.8621349
H 1.5456865 0.9470404 0.6903521
H -0.7066598 -0.56122005 1.8493121
H -1.040211 -0.37482715 -0.03536337
H 0.03595083 1.7326565 1.2631631
