9

C 1.46769624 0.45542607 -1.13332249
C 0.46717744 0.18075367 -0.33472387
C -0.45368411 -1.01057366 -0.40707226
C 0.26291097 1.18754458 0.75648726
O -0.61241731 1.05618177 1.57569047
H 0.95247116 2.04993463 0.77431594
H -0.20443193 -1.66866411 -1.24120803
H -1.48925657 -0.66997023 -0.51704300
H -0.39046596 -1.58063280 0.52687637
