11

O 1.21660461 1.35794501 -1.73790164
C 0.99181020 0.56832761 -0.88063558
C -0.10511658 0.22848137 0.10647246
C 0.85256346 -0.83876191 0.60396014
O 1.77843759 -0.46945773 -0.45557819
C -1.55301859 0.27704494 -0.05540442
O -0.85886500 1.13684998 0.84709718
H -1.98000133 0.76202148 -0.93197362
H 1.28552564 -0.65034785 1.58825217
H 0.53027092 -1.87608038 0.50113320
H -2.15821128 -0.49602244 0.41457825
