11

O -1.8429782 1.305063 0.78354955
C -0.9181002 1.0148009 0.08647918
C 0.19023821 -0.08051795 0.09571027
C 0.079924665 0.111672185 -1.3408188
O -1.103002 0.57348746 -1.5333077
C 0.5244037 -1.1987793 0.9832846
O 1.384395 -0.06319982 0.82433957
H 0.0038007228 -1.2679075 1.9336733
H -0.028535534 1.7930322 -0.2483744
H 0.9067271 -2.1296997 0.56275374
H 0.8031265 -0.057951223 -2.1472893
