10

C -1.1609519 0.06310185 -0.5717289
C 0.34778085 0.18826318 -0.5087436
O 1.0004838 0.5361175 -1.4638469
C 0.99047834 -0.1526529 0.8203339
H -1.5029961 0.1720301 -1.6029086
H -1.4883746 -0.9000946 -0.16623002
H -1.6163994 0.8473341 0.043512378
H 0.9161233 -1.2332257 0.9912329
H 2.0435328 0.13526927 0.811986
H 0.4703227 0.34385714 1.6463932
