10

C -0.71605543 0.64575327 -0.97452286
C 0.44806788 0.23058087 -0.19185478
O 0.15605164 -0.37023905 -1.44480968
C 0.32070863 -0.64900249 1.02613520
H -0.69477494 1.57983466 -1.53406366
H -0.59298460 -1.24869937 0.97033325
H -1.70691488 0.30360186 -0.67495487
H 1.17377581 -1.33095126 1.10312188
H 1.32376264 0.88134951 -0.21652812
H 0.28836304 -0.04222807 1.93714401
