10

O -0.3344314 0.2054444 1.5937842
C -0.73830545 0.64976865 0.28416687
C 0.08892202 -0.79128194 0.64011484
O 0.8694922 0.107329555 -1.5985929
C 0.6811883 0.328956 -0.25541404
O -1.160022 -0.69336087 -0.0988094
H 0.41965193 -1.7682213 0.98972815
H 0.10509728 -0.41511485 -1.8929684
H 1.5131236 0.90356785 0.15044267
H -1.4447163 1.4729124 0.18754783
