11

C -1.4832246 0.3952679 0.07681319
C 0.74429023 -0.89455885 0.14868337
N 0.76680154 -2.0291083 0.59462965
C 1.7053679 0.17796595 0.14987315
N -0.25673068 -0.04447863 -0.5769356
H -1.8120769 1.3560607 -0.33010402
H -2.286633 -0.34162527 -0.040693887
H 1.7369728 0.8809873 0.9778115
H -0.34405354 -0.258996 -1.5669625
H 2.513305 0.24749655 -0.57973534
H -1.2840184 0.51098865 1.1466205
