11

C -0.35380852 -0.10691043 1.7481773
C 0.2174471 -0.047629923 -0.6131301
N 1.3932184 -0.468704 -0.80346286
C 0.5941174 0.0646179 -1.992119
N -0.7134548 0.080577634 0.35221168
H 0.24701734 -0.6671891 -2.7238886
H 0.39933503 -0.8958867 1.8052161
H -1.5186402 0.6371376 0.12492446
H 0.057611458 0.80440104 2.1992083
H 0.91259897 1.0204045 -2.4104393
H -1.2354422 -0.42081827 2.313302
