11

C -0.02027246 1.08378086 1.42047254
C 0.13211981 -0.39836793 -0.49932728
N 1.29515924 -0.37988220 -0.99224274
C 0.20874959 -1.20292747 -1.68376905
N -0.57437059 0.05681253 0.55356508
H -1.57164109 -0.05629495 0.50457265
H -0.46775847 1.00273815 2.41464072
H -0.18942271 2.09498683 1.03055635
H -0.15828331 -0.82887112 -2.64049216
H 0.28985296 -2.28916252 -1.61290058
H 1.05586728 0.91718764 1.50492451
