10

N -1.22186125 -1.39102625 0.86517309
C -0.48642313 -0.57554655 0.26732336
C 0.45599324 0.61759091 -1.40061505
C 0.68828949 1.48565424 -0.16315786
C 0.36476679 0.51558082 0.88638012
O 0.85909881 0.82876728 -2.50387302
O -0.32483906 -0.48851687 -1.10238847
H -1.70849999 -2.00846230 0.21986973
H -0.00521572 0.90445479 1.83953811
H 1.37869082 0.11150427 1.09175009
