14

C 2.17751386 -0.23138040 -0.20280227
N 0.16298855 -0.03707074 -1.87868985
C -0.11850189 -0.07910377 -0.63512898
O 0.84801060 -0.14968482 0.29918036
N -1.36866378 -0.09371158 -0.04709171
C -1.56902871 0.23807799 1.35551776
H -0.67889577 -0.01735802 -2.44760434
H 2.81631210 -0.29194761 0.67859641
H 2.42532123 0.65072311 -0.79939469
H 2.30231339 -1.12184056 -0.82700148
H -0.94178076 -0.40317697 1.97625839
H -2.61599447 0.04342656 1.60339513
H -1.33661056 1.28414074 1.59156388
H -2.10298369 0.20890643 -0.66679828
