11

C 0.45437765 -0.116151266 -0.45166317
C -1.2329086 -0.009237446 1.2897975
N 1.15896 -1.1566344 -0.32397914
C 1.5099996 -0.1560543 -1.4190288
N -0.6463675 0.47043195 0.04908064
H -0.74097246 0.41370785 2.1742525
H -0.8035984 1.4262261 -0.21849747
H -2.295057 0.24961743 1.3137475
H -1.1335067 -1.0966703 1.3172654
H 1.3127711 -0.46128255 -2.4480076
H 2.4163024 0.43604705 -1.2829673
