11

C -0.5254784 1.0407797 0.5443225
C -0.07787226 -0.048028227 -0.432102
N 1.3759161 -0.14256385 -0.44903132
C -0.7181703 -1.346672 -0.10221172
N -1.1556536 -2.3821125 0.1647269
H -1.6124929 1.1613694 0.5295324
H -0.2233793 0.7895899 1.5672069
H -0.052164786 1.984817 0.26248214
H -0.40340722 0.22573794 -1.4422137
H 1.6798744 -0.853229 -1.1065356
H 1.7128285 -0.4296883 0.46382362
