10

O 1.05576784 1.21986656 -1.02639954
C 0.47879825 0.81226130 0.20267204
C -0.29171943 -1.39144098 0.94255573
C -0.36591913 1.31243457 -0.87927403
N 0.57312567 -0.57106445 0.42114941
H 1.53068687 -0.89705634 0.30995386
H 0.03860939 -2.35206484 1.32220174
H -0.92000992 0.62536479 -1.52300784
H -1.32436043 -1.07675683 1.04360380
H -0.77497899 2.31845588 -0.81345518
