10

N 0.31995854 0.3253579 -0.22224273
C 1.3039831 0.29329142 0.5818277
O 2.391091 1.0263411 0.38146812
N -1.7739136 -0.38476995 -0.7809471
C -0.7745311 -0.50337994 0.13570422
O -0.82680714 -1.2163233 1.1169853
H 2.2425897 1.5305884 -0.4352061
H -2.5975094 -0.94712687 -0.66700053
H -1.6417714 0.18924569 -1.5955613
H 1.3569107 -0.31322446 1.4849724
