10

N 0.02230145 0.46838398 0.19427330
C 1.23141511 0.51779198 0.58345818
O 1.72839174 1.59481253 1.17704924
N -1.67408262 -0.70684234 -0.77621980
C -0.36402246 -0.75592852 -0.40959154
O 0.35806786 -1.71743872 -0.57697519
H 1.00739690 2.24334611 1.23039150
H 1.95827509 -0.28637922 0.47707943
H -2.06882518 -1.49887128 -1.24993664
H -2.19891781 0.14112532 -0.64952854
