12

O 1.0079467 0.70827144 1.3435282
C 0.044260625 0.9231982 0.35463682
C 0.21448535 -0.044290137 -0.8445896
O 1.3848373 -0.79881537 -0.84181774
C -1.0626855 -0.6943717 -0.30111462
O -1.2078862 0.3510255 0.69015115
H 0.08980011 0.43070093 -1.8203843
H 0.57648605 0.19749618 2.044359
H -1.9302101 -0.731822 -0.96529627
H -0.01859896 1.9978272 0.15705237
H -0.8868743 -1.6773055 0.15286106
H 1.7884389 -0.6619147 0.03061405
