11

O -0.27599815 1.6396754 2.1656716
C -0.21442401 0.8678906 1.2334999
C 0.75290996 1.0198479 0.1341958
C 0.7808619 0.13536106 -0.8718531
N -0.10450449 -0.920891 -0.87754446
C -0.9945314 -1.0429175 0.1541182
N -1.0871631 -0.24774726 1.1532481
H 1.4343954 1.8603271 0.16437931
H 1.4658562 0.18570304 -1.7105314
H -0.099157825 -1.5950967 -1.6238748
H -1.6582446 -1.9021527 0.07869081
