11

O -1.5518668 -1.2064853 1.7117543
C 1.3512086 -0.52837473 0.05764111
C -1.0891829 0.5442429 0.17900777
C -0.23697217 1.1112068 -0.7718545
N 0.6111618 -1.0576223 0.96243685
C -0.7341543 -0.64425516 1.022522
N 0.95421135 0.40823287 -0.8609373
H 2.3984547 -0.82213926 -0.0054980307
H -2.0405445 1.0231516 0.39769146
H -1.2858068 0.47239384 -1.1347169
H 1.6234907 0.6996488 -1.5580467
