11

O 2.059761 -0.9069584 -1.0664088
C -1.1981701 -0.49114138 -0.62933856
C 1.0580314 -0.6602091 -0.44683838
C -0.14871858 1.2667098 0.71675724
N -0.19187224 -1.2398378 -0.82336706
C 0.99473405 0.2785795 0.7309936
N -1.1523526 0.77762467 -0.011335765
H 0.8199945 -0.30993453 1.6481534
H -2.1942017 -0.8164541 -0.9220437
H -2.0052614 1.3225029 -0.059582
H 1.9580556 0.7791188 0.8630099
