10

N 0.49953252 2.13692830 0.56705547
C -0.62796164 -0.78890972 -1.02463536
C -0.55381749 -0.19411293 0.45293871
C -0.00655971 1.04235820 0.51142191
C 0.39288210 -1.29775879 -0.14633251
H -0.21692688 -0.06758659 -1.74547800
H -1.31011530 -0.45951354 1.18371754
H 0.16442928 2.89775822 -0.01387018
H 0.19932136 -2.20462549 0.43668579
H 1.45921571 -1.06453783 -0.22150297
