10

N -0.6499182 -2.179666 0.025640793
C 0.26330486 1.2931899 -0.1802694
C 0.741007 -0.10717541 -0.33820075
C -1.0642545 -1.0592053 0.15590224
C -0.48748705 0.1714445 0.545512
H 0.42178336 -0.3901517 -1.3503802
H 0.7126338 1.9691496 0.54412264
H -0.3432746 0.17567287 1.6251605
H -0.18623567 1.7949039 -1.035372
H 0.592441 -1.6681622 0.007884241
