17

C -1.5306742 2.2382274 0.13878424
N -0.66448593 1.1779304 -0.34148407
C -0.109883554 0.31856516 0.59255517
O -0.22439517 0.52168274 1.7951319
N 0.6041343 -0.73955625 0.08024446
C 1.0459459 -1.7853256 0.9810221
C 0.83291143 -0.9396611 -1.3373566
H -2.465456 1.86346 0.576773
H -1.0070274 2.8058846 0.91137356
H -1.7652502 2.9084766 -0.69150335
H -0.9397459 0.77272797 -1.2227817
H 0.5271018 -2.7327807 0.7771044
H 0.8268755 -1.4718666 2.0008476
H 2.1250677 -1.9540521 0.8778225
H 0.99643445 0.021143822 -1.8343332
H 1.7410599 -1.5372655 -1.4675419
H 0.007386883 -1.4675907 -1.8366582
