11

O 0.18780664 -1.9085013 1.1275997
C 0.030057717 -0.76588 0.41284874
C -0.87494767 -0.36879703 -0.53738296
C -0.50246173 0.9655479 -0.90698755
C 0.596351 1.3149376 -0.17644224
N 0.91714597 0.24168865 0.6349412
H -0.50982165 -2.5201933 0.8664511
H -1.6995897 -0.9509462 -0.9229962
H -1.0061449 1.5822604 -1.6370343
H 1.1833334 2.2196171 -0.15363799
H 1.6782709 0.19026643 1.2926406
