11

O -2.0567265 -0.9222366 -0.117955595
C 1.128545 0.22357062 0.59019274
C -0.9897643 -0.19610885 -0.12832685
C -0.18992814 -0.22540368 1.0506098
C 1.0300623 0.5422623 -0.720052
N -0.30382875 0.32227638 -1.1631252
H 1.764495 0.93090814 -1.4113177
H -0.56537074 0.14631589 -2.1211858
H 2.0110266 0.36118656 1.2002584
H -0.6190308 0.106726155 1.9942706
H -1.2094799 -1.2894969 0.82663125
