9

O 1.3120339 1.1319137 0.64362717
C -1.0223445 -1.2540122 -0.18725827
N -0.7531745 -0.63335764 -1.3288484
N -0.36187813 -0.79328036 0.93653363
C 0.29770568 0.14211512 0.3291355
N 0.14347789 0.32936653 -0.95621806
H -1.7218513 -2.0778592 -0.1405657
H 0.9541532 1.8412969 1.2041116
H 1.1518778 1.3138171 -0.5005175
