9

O 0.64086676 0.7940071 1.4908019
C 0.10536247 0.081051365 0.30222613
N -1.1853243 -0.035717726 0.2695452
N 0.88759744 -0.3850413 -0.6356756
C -0.12280824 -0.911511 -1.3917379
N -1.347135 -0.7412194 -0.90198827
H -0.17842093 1.0484257 1.9708843
H 0.061123192 -1.43625 -2.3182688
H 1.1387385 1.5862553 1.2142131
