11

C -0.8739101 -0.9330928 -1.1665072
N -0.18344665 -0.16517621 -0.15015844
C -0.74603343 0.5369576 0.8597875
N 0.35500106 1.031449 1.5748525
C 1.4598007 0.56184554 0.90675616
N 1.1686233 -0.22026049 -0.09363645
H -0.4793616 -0.6670801 -2.14948
H 2.4764602 0.77070844 1.2124159
H -0.5190273 1.7764354 1.096323
H -0.7234265 -2.0002115 -0.98912907
H -1.9346799 -0.6915749 -1.1012241
