13

C 0.90161168 -0.74228209 0.56090507
C -0.11399132 0.10404760 -0.16676561
N -0.16463222 1.36201112 0.15733760
O 0.55678899 1.96886349 1.02064388
C -1.01524801 -0.43979448 -1.22618757
O 0.89878249 -0.52698849 1.94601270
H 0.98096748 0.43891863 2.04311024
H -0.85708740 1.94608752 -0.32708975
H 0.67242689 -1.79840216 0.38635958
H 1.89242597 -0.53877296 0.11822217
H -1.62312938 0.34730398 -1.68384034
H -1.69330830 -1.19429574 -0.80866830
H -0.43560660 -0.92669663 -2.02003957
