12

N -1.62687794 0.80810869 0.35881453
C -0.29589526 0.37212822 0.21733138
N 0.78491202 1.02582439 0.81896641
C 1.99917424 0.48347414 0.54968653
O -0.24774538 -1.61441932 -1.26452469
C 0.27417733 -0.64591980 -0.47190486
N 1.62992343 -0.56386601 -0.26498646
H -2.18358918 0.20846552 0.95226729
H -2.09221790 0.94560141 -0.52704330
H 0.66788264 1.84207423 1.39596775
H 2.29125950 -1.21261527 -0.65771316
H -1.20100432 -1.64885580 -1.10686157
