11

C 1.7144164 0.7748059 0.7709427
N 1.0964453 1.6621695 -0.149891
C -1.416032 -0.7205427 -0.3241878
N -0.16982113 -0.0002927893 -0.10235697
C 0.84684825 -0.32036203 0.73170686
N 0.0020144433 1.1571844 -0.708993
H -1.2314273 -1.7852654 -0.1774524
H -1.7460846 -0.52688974 -1.344722
H 2.2175043 1.3975185 -0.33815157
H 0.8555146 -1.2657502 1.2581758
H -2.1693783 -0.37257522 0.38492942
