11

C 0.9394494 1.0919719 -0.76734936
N 0.08842474 0.1385017 -0.08552856
C 0.37688193 -1.0715175 0.42647263
N -0.6993895 -1.614883 0.958108
C -1.6418236 -0.66417 0.73395354
N -1.218115 0.41393745 0.1072436
H 0.5774683 1.2450765 -1.7864541
H 0.9269129 2.0421317 -0.22899616
H 1.9576706 0.6986898 -0.79385096
H 1.365812 -1.5091875 0.39223856
H -2.6732917 -0.77055115 1.0441629
