11

C 1.03616610 -0.05446368 -0.20064623
N 0.25203778 -1.85703925 0.81997594
C 1.36916731 -1.28813676 0.29691882
N -0.74474989 -1.04655757 0.67136471
C -1.20879271 1.12377508 -0.26137222
N -0.28805109 0.04922541 0.05628606
H -1.28259411 1.25228240 -1.34327863
H -0.87981371 2.05632768 0.20195100
H 1.60291596 0.72080466 -0.69239167
H 2.32351453 -1.79191069 0.31057265
H -2.17980010 0.83569262 0.14061966
