10

N -1.0234724 -1.0666673 -1.3659996
C -0.46267432 -0.41071412 -0.44538343
N 0.29279253 0.73368037 -0.63156027
O 0.4587142 0.31920883 1.5196813
C 0.8781809 1.15948 0.53866833
O 1.616708 2.0798454 0.71681154
N -0.47853798 -0.6040312 0.96072334
H -1.5771607 -1.8374623 -1.0105798
H -0.15958525 -1.5253059 1.247797
H 0.4550351 1.151966 -1.5301583
