10

N 0.99597000 -0.03895593 -0.17149041
C 0.66466267 -1.36777847 -0.30522881
N -1.12399446 -0.20762157 0.45866252
O -0.64712483 -1.48400365 0.02658388
C -0.09483198 0.73220320 0.18975102
O 1.35304489 -2.28266925 -0.64188076
N -0.09400584 1.99068699 0.28206059
H 1.89952518 0.34325891 -0.38658060
H -0.97778193 2.35508040 0.61847725
H -1.97546373 -0.04020016 -0.07035482
