11

N -0.44767445 1.1895412 0.6261455
C -0.37973812 0.06422456 1.2914466
N 0.7229593 -0.54710716 -2.037502
N -0.09279649 1.2262958 -0.65334165
C 0.11822619 -0.94948566 0.31969735
C 0.2912745 -0.08448448 -0.9330197
H -0.59841746 -1.7584715 0.14153673
H -0.7591694 2.0694919 1.024128
H 0.7496593 0.20203096 -2.7270045
H -0.6705195 -0.003362611 2.328277
H 1.0661962 -1.4086733 0.61963636
