11

C 0.13085505 -0.795959 -1.5950366
C 0.41211915 -0.07551046 -0.2961248
C -0.7092124 0.17419505 0.6057479
C -0.17828932 0.82485646 1.6693939
N 0.80600893 1.3016411 2.2398098
O 1.5477729 0.28954646 -0.011023869
H -0.9263412 -1.033816 -1.7311141
H 0.71631414 -1.7201161 -1.6160277
H 0.473019 -0.16656853 -2.4216218
H -1.7408495 -0.096803695 0.45526573
H -0.53139687 1.298535 2.7007315
