11

C 0.0011689141 -0.415529 0.033109117
C -0.06598588 -1.8835182 0.1737561
C 0.4087582 1.4174718 -0.345131
C -0.67252904 0.6983757 0.35663357
N 0.84817374 2.5314314 -0.6901671
O 1.05799 0.19014919 -0.6432265
H -0.082549274 -2.3519506 -0.8148882
H 0.22660284 3.2761312 -0.38163024
H 0.8194955 -2.248301 0.70473135
H -1.578446 0.9583961 0.8811159
H -0.96267885 -2.1726563 0.7256972
