11

C 1.0097588 -0.80868596 -1.1425048
C 0.216739 -0.16413191 -0.059485897
C -0.8834365 0.63068485 -0.052971974
C -1.0926554 0.8822592 1.3306631
N -0.20148078 0.2921192 2.0757177
O 0.6298229 -0.37279642 1.2025614
H 1.0102007 -1.8973279 -1.0317607
H 0.5825927 -0.5557611 -2.1138518
H 2.0497708 -0.4677246 -1.1169437
H -1.4567719 0.9854347 -0.89577067
H -1.8645406 1.4759299 1.8043476
