12

N -0.09950788 0.97901 1.9361303
C 0.9137105 -0.380273 -0.673945
C -0.7740737 0.40033284 1.035272
N -1.4236523 -0.54661953 -1.080507
C 3.0134954 0.035155334 0.7184842
N 2.018572 -0.14584449 0.11855056
C -0.3522888 -0.17003258 -0.27506897
H -2.258547 0.011085505 -0.98016644
H -1.2098458 -0.7578638 -2.045216
H -1.8541297 0.29592907 1.2079073
H 0.885369 1.0574864 1.6967157
H 1.1408981 -0.77836573 -1.658157
