12

N 0.8595347 -1.7377889 0.56555897
C 0.26780987 -0.54663175 0.170365
C 0.9280384 0.3948555 -0.6274022
N 0.34810692 1.5069622 -1.0605457
C -0.92148393 1.698303 -0.6979497
N -1.650111 0.8802597 0.057708345
C -1.0547391 -0.22684166 0.484941
H 1.8674049 -1.7365185 0.60467464
H 0.44778666 -2.1785882 1.3746059
H 1.9641037 0.23450579 -0.9250299
H -1.404682 2.6069536 -1.0502061
H -1.6517688 -0.89547056 1.1032798
