11

C 0.5256053 -0.18991892 -0.6960001
N -0.8446626 -0.30834764 -0.81286514
C -1.4743882 -0.27371183 0.39538115
O 2.0258195 0.6559661 0.9142744
C 0.78249 0.5901545 0.484569
O 1.4026711 -0.69764537 -1.394266
H -1.2487354 -1.0620794 1.1065267
H 2.5110548 -0.0023380676 0.3949649
H -1.3082316 -0.23331642 -1.7066063
H 0.09015975 1.3355523 0.8681409
H -2.4617825 0.18568459 0.44588032
