11

C -1.51225063 -0.31507188 0.43577466
N 2.07424065 -0.58845530 0.19459190
C 0.74087748 1.01231410 -0.88541686
O -0.29084730 1.56398715 -1.17599620
C 0.88179982 -0.17940064 0.03421382
O -0.16278700 -0.76062396 0.63233097
H 1.72494877 1.33169288 -1.27175337
H -1.80369505 -0.39179702 -0.61297294
H -1.64434451 0.71292233 0.77437344
H -2.10431234 -0.99598010 1.04702798
H 2.09637033 -1.38958751 0.82782648
