11

C 1.45757319 -1.08195688 -1.28219585
C 0.17252514 0.51274363 -0.02428302
C -0.91903651 1.12269289 0.43195665
C -1.57574908 0.62672557 1.63774569
N 1.21636926 0.02604778 -0.37657976
O -1.23942896 -0.35758152 2.26155726
H 1.98654044 -1.86215527 -0.72971188
H 0.53155090 -1.48629038 -1.70219358
H 2.10879066 -0.72952353 -2.08657684
H -1.29219626 1.99329096 -0.09284422
H -2.44693868 1.23600664 1.96312557
