11

C -2.0566566 0.61436695 0.9750373
C -0.7746084 1.1746666 0.5583853
C 0.25190693 0.36395124 0.3119985
C 1.6820793 -1.0696138 -0.98270655
N 1.2066575 -0.36013892 0.19058526
O -2.3024437 -0.5692349 1.0739713
H -2.8318853 1.3773367 1.2051773
H -0.63388556 2.2440672 0.462549
H 1.0707834 -0.8684123 -1.8677129
H 1.6715705 -2.1390812 -0.7593605
H 2.7164826 -0.7679076 -1.1679238
