10

O -0.15288658 2.21816763 0.59112446
C 0.39818872 -0.53724736 -0.84982067
O 1.13656375 0.69500858 -0.47098205
C -0.02289746 -1.28736565 0.32958114
C -0.01339557 1.01546439 0.09376552
C -0.88618021 -0.07435409 -0.11164651
H 0.59457414 -1.23012432 1.22400674
H -0.48777318 -2.25384434 0.15429736
H -1.05866033 2.26451507 0.93405106
H 0.49246671 -0.81022025 -1.89437724
