10

O 0.9543109 2.0913167 -1.1626173
C 0.6727282 1.113655 -0.54754364
O 1.1305114 0.7548056 0.707093
C 0.4995237 -0.53634906 0.5673023
C -0.96630675 -0.36895454 0.50657535
C -0.120591246 -0.14810134 -0.74249214
H 1.0777692 -1.4048339 0.84831494
H -1.5569736 -1.2794861 0.4748146
H -1.4319044 0.47259194 1.01464
H -0.25906742 -0.69464463 -1.6660873
