10

N -1.2125245 0.4486505 -0.63914055
C 0.014738685 -2.5597897 0.34821162
O 0.26364574 2.0923307 -0.096411526
C -0.057732888 0.9215891 -0.13047892
C 0.90899557 -0.12461297 0.4375323
N 0.43188205 -1.4661844 0.3959014
H 1.8410845 -0.051068317 -0.12964553
H -1.4429823 -0.53211 -0.6404591
H 1.1229608 0.15763214 1.4723824
H -1.8700678 1.1135628 -1.0178921
