10

N 0.24872118 -0.43845686 1.6339854
C 0.25128517 -0.77199244 0.37241507
N -1.4129065 0.57301706 -0.2992577
N -0.65960586 0.2739138 2.1293406
N 0.3677232 0.19944693 -1.8919226
C -0.3035365 0.17075947 -0.68071276
H 0.42853168 -1.8105767 0.09385175
H -0.0036250972 0.8681201 -2.5482755
H 1.3715495 0.23927517 -1.7979774
H -0.2881365 0.69649357 2.9885538
