10

N 1.37486894 1.22596141 -0.38572690
C -0.14556184 -0.29116654 -1.04630907
N 0.75613920 0.80011622 -1.36738617
N 0.41261686 -1.46217335 -0.27064309
N -1.06516850 -0.49609639 1.46059018
C -0.40004102 -0.68109796 0.30943176
H -1.40931978 0.43463702 1.63600059
H 2.00289295 1.96395788 -0.73116018
H -0.81867316 -0.50655994 -1.87201017
H -0.70775367 -0.98757833 2.26721305
