11

O -1.8257071 0.6753988 0.7418754
C 1.1084385 -0.58823144 -0.07296773
C 0.2729189 0.613294 -0.69410324
N 0.09589614 -0.6777314 1.0289139
C -0.60906726 0.3222951 0.47975624
O -0.6612009 0.29949096 -1.5853564
H 1.0814347 -1.4578735 -0.7289856
H 2.110359 -0.36944205 0.30406162
H -0.32452592 -1.5263519 1.3881831
H -2.0856209 1.1491823 -0.07161752
H 0.83707464 1.5599694 -0.7897599
