11

O -1.5035187 -1.0429146 0.3811591
C -0.16728176 -0.7702263 0.0658732
C 0.029511375 0.23511887 -1.092732
N 0.7633024 1.0780616 -0.1451239
C 0.5064435 0.3020667 0.9476924
O 0.6765191 0.43921998 2.1338563
H -1.55955 -1.1250682 1.3441253
H 0.43136057 -1.6836878 -0.043889977
H 0.630089 -0.11577333 -1.9359245
H -0.91626567 0.6605205 -1.4347862
H 1.1093904 2.0226822 -0.22025007
