11

O 0.07736699 1.84558170 -1.03732646
C -0.32322501 -1.25019322 0.19353147
C 0.14400037 0.69333885 -0.33131958
N 0.15320363 -0.55860752 -1.03964290
C -0.42131102 0.10841028 0.88043604
O 0.92149917 0.66125961 0.84417001
H -1.28471228 -1.74530522 0.03531497
H 0.40031722 -1.94078473 0.63934497
H 1.06815490 -0.83674635 -1.38032450
H -1.09633659 0.46563858 1.64964082
H 0.36104283 2.55740762 -0.45382518
