11

N -1.7147448 1.2103627 -0.66527724
C 0.4245238 -0.9175411 -0.015250086
C 1.4570112 -0.31988627 -0.5693767
C -1.4482634 0.6572816 0.640404
C -0.50091416 -0.23954642 0.9333544
N 2.358562 0.25489524 -1.1728884
O -1.6898953 0.4126271 -1.5725727
H -0.3798289 -0.48628172 1.9869906
H -2.0341318 1.1505933 1.4111508
H 3.2774642 0.24388322 -0.73209053
H 0.2502169 -1.9663879 -0.24444415
