10

C -1.1612418 0.060066663 -0.57073486
C 0.34814018 0.18888506 -0.5106097
O 0.99947274 0.54159886 -1.4649553
C 0.9914121 -0.15231833 0.81930715
H -1.5049266 0.16725585 -1.602054
H -1.4875699 -0.9016021 -0.16138546
H -1.6166943 0.8455512 0.04365523
H 0.9162178 -1.2314619 0.99187815
H 2.044811 0.13714927 0.8103599
H 0.47037897 0.34487534 1.6445391
