10

C -0.35450258 -0.39616828 -1.18154067
C 0.57491607 0.23957860 -0.16680310
O 1.64731311 0.69797612 -0.48328872
C 0.07648310 0.27636081 1.26313477
H -1.31686076 0.12610598 -1.19038455
H -0.55407174 -1.43771847 -0.90854324
H -0.84968340 0.85734799 1.32090299
H -0.15322146 -0.73579438 1.61258637
H 0.09668021 -0.35631634 -2.17643492
H 0.83294766 0.72862787 1.91037129
