10

C 0.0003218704 1.1304777 0.11707517
C -0.54271394 -0.42721546 0.19838135
O -1.7872707 -0.5150823 0.0009111366
C 0.48648158 -1.1503475 -0.4649325
H 1.0328298 1.2538221 0.43839905
H -0.14090125 1.4567719 -0.91276175
H 1.522543 -1.0131416 -0.16192015
H 0.2674173 -1.8458434 -1.2725719
H -0.6859602 1.6597847 0.77541304
H -0.1527475 -0.5492262 1.2820066
