11

N 0.67871898 -1.17741735 -0.42439698
C 0.43796098 -0.18999000 -1.32899617
C -1.50441320 -0.31075779 0.43627150
O -2.03981664 -1.37384612 0.28302994
C -0.07488807 -0.00390856 0.06244225
O 0.64778267 0.21439774 -2.43058218
N 0.52662682 0.93899238 0.93566125
H 1.53857114 0.90036024 0.94219785
H 0.23463232 1.89294450 0.75948659
H -2.03404884 0.57064828 0.85796930
H 1.58887373 -1.46142323 -0.09308334
