11

N -0.3655505 -0.22091986 -1.2376033
C -1.4496492 0.13732202 -0.6337302
C -0.017810075 -0.8096935 1.0608127
O -2.4563324 0.6669492 -0.390402
C 0.40776718 0.016939636 0.0021212427
O -1.0986445 -1.4227315 0.95505327
N 1.4659971 0.87410575 -0.078655176
H 1.449577 1.5607936 -0.81939095
H -0.34322146 -1.1659392 -1.6318972
H 0.6030999 -0.86361104 1.9702644
H 1.8047668 1.2267852 0.80342686
