11

N 0.28329995 0.45218515 1.56786
C -0.29074928 -0.080940954 -0.46109143
C -0.908129 0.42613092 0.6768936
N 1.4150821 -0.13597001 1.0678837
N -0.87313133 -0.18090443 -1.7303278
C 1.0550759 -0.44304153 -0.15829189
H -0.6897246 -1.0666175 -2.1862433
H 1.7827646 -0.899763 -0.8217284
H -1.869727 -0.018443087 -1.6844803
H -0.08904935 1.4718359 1.1542778
H 0.18428786 0.4755285 2.5752482
