11

O 0.27750941 -1.26546230 -1.19647584
C -0.73944244 -0.47567366 -0.53770050
C 1.01149850 -0.40875322 -0.29344542
N -0.03158054 1.03690768 0.99899892
C 0.09660334 0.82603883 -0.46864680
C -0.03355228 -0.44278678 0.84465782
H -0.10733087 -1.14843187 1.67505251
H -1.78634567 -0.64091108 -0.80289639
H 0.18517906 1.63587963 -1.19624657
H 2.09725729 -0.48553413 -0.25673913
H -0.96979605 1.36872689 1.23344149
