11

N 1.3451269 0.569645 1.8385502
C 0.63942415 0.26899502 0.8346851
C -0.76672 -0.17534739 0.8548793
C -1.1570333 -0.39792177 -0.3968065
C -0.013191256 -0.10760171 -1.3243784
O 1.0556275 0.2980762 -0.46989942
H 2.2832615 0.84585035 1.5539436
H -1.3282193 -0.28302574 1.7730951
H -2.126678 -0.734062 -0.7411949
H -0.23317155 0.703215 -2.0270796
H 0.3015734 -0.9878231 -1.8957946
