10

C -0.78254513 0.39059665 -0.36332191
C -0.10451681 -0.90325774 -0.63599329
N 0.53560460 0.33531158 -1.07027324
C 1.06568735 -0.39248743 0.10963218
N 0.68630021 0.27706312 1.35331722
C -0.45352418 0.75468554 1.05571463
H -1.62665704 0.75586644 -0.93721759
H -0.32146676 -1.74914864 -1.27479386
H 2.06682075 -0.80077137 0.02292105
H -1.06570294 1.33214174 1.74001502
