10

C -0.914184 0.010397755 0.24719423
C 0.97520775 0.20148842 -0.5568908
N -0.33317718 0.833294 -0.8598867
C 0.08013049 0.10060188 1.3686585
N 1.2473958 0.22120577 0.87994945
C -0.20572473 -0.62095404 -0.89631426
H -1.9935299 0.024204554 0.3478172
H -0.13140687 0.073420666 2.4321427
H -0.5135705 -1.2524917 -1.7191484
H 1.788859 0.4088327 -1.2435222
