12

C 0.22331591 -0.32025203 1.6703761
C 0.13187358 0.74957454 -0.5517055
N 1.2335193 -0.4658206 0.8750231
C -0.8250303 -0.10353422 -1.321318
O -0.75954413 0.36156568 1.2850099
H -0.5181647 -1.1520506 -1.2835271
H 2.031081 -0.9995609 1.2049618
H -0.786333 0.21628426 -2.3728108
H 1.1358136 0.76246446 -0.96107024
H 0.19223557 -0.77455384 2.6691923
H -1.8468155 -0.008139428 -0.95181155
H -0.21195109 1.7340229 -0.2623199
