12

C -0.46832362 1.4071293 0.2746895
C -0.23341124 -0.076731406 0.5696316
N 0.64458275 -1.5816308 -1.0774248
C 0.8895328 -0.6155453 -0.2846463
O -1.4146041 -0.80121684 0.3650753
H -1.2113204 -1.4936556 -0.28333583
H 1.4621758 -1.8542476 -1.6181012
H -1.3059936 1.7719266 0.8753544
H 1.8629471 -0.12378791 -0.17506091
H 0.41771287 2.0038738 0.51286083
H 0.07484565 -0.17951857 1.6230586
H -0.7181443 1.5434042 -0.7821009
