10

N 0.226651 1.7663329 0.39355442
C -0.20232716 0.47926745 0.16358727
N -1.4028047 0.048902895 0.3571352
O -1.3368456 -1.3381227 0.101730384
C -0.079961024 -1.6964197 -0.2602488
O 0.28218353 -2.80767 -0.52301455
N 0.64581335 -0.51443976 -0.25190854
H 0.7509179 2.1747098 -0.36806893
H -0.53351486 2.366147 0.68355006
H 1.6498877 -0.47870743 -0.29631662
