10

N 1.53643362 1.23212624 -0.49043034
C 0.66424347 0.21008606 -0.23773902
N -0.61544384 0.46861710 0.18619899
O -2.30004049 -1.12439049 0.57532752
C -1.08164453 -0.74207618 0.22679455
O -0.25275300 -1.70215269 -0.11409821
N 0.97201418 -1.04983222 -0.42712882
H 1.36251143 2.06283532 0.05282034
H -2.78953764 -0.31684970 0.78714135
H 2.50421693 0.96163702 -0.55888646
