13

C 0.020358386 0.017716814 0.54577094
C -1.0898316 -0.97915184 0.34212187
N 0.80081964 -0.021005757 1.644372
O 0.047239743 0.85671717 -1.7558303
C 0.002419554 1.2154138 -0.39570484
O 1.754769 -0.2856624 0.42093337
H 0.93010163 0.5023253 -1.9175503
H -1.8146819 -0.80768883 1.1477313
H -1.578118 -0.87424463 -0.6296545
H -0.95869774 1.7225689 -0.24294937
H -0.7163309 -1.999416 0.47441912
H 1.7993538 -1.25083 0.46421605
H 0.8025984 1.9032573 -0.09787559
