13

C 0.06039775 -0.53749647 0.08241461
C 1.11947111 0.46644320 0.50025737
N 0.14186835 -1.82044932 0.60050846
O 0.73277701 1.81551115 0.35176382
C -0.61309612 -0.23632486 -1.23648600
O -0.90648818 -0.68038699 1.21240268
H 0.07462759 1.99655075 1.03341651
H -1.74371547 -0.99311522 0.83047536
H 1.43692092 0.21658023 1.52337943
H 1.97840913 0.30821667 -0.16046856
H -0.93408298 0.80894429 -1.30630128
H -1.45867832 -0.91245752 -1.39642522
H 0.11158888 -0.43201625 -2.03493718
