9

O 1.7459629 0.5388364 -1.6420909
C 0.890334 0.35317 -0.81957555
N 0.26667154 -0.81342167 -0.44133583
C -0.6718953 -0.55555356 0.5565459
C -0.61686 0.7588691 0.7824824
O 0.32464424 1.3349272 -0.03978333
H 0.49008504 -1.7005284 -0.856236
H -1.2804981 -1.32722 1.0031574
H -1.148444 1.410921 1.4568359
