11

N 1.0339535 -0.015603945 -1.5526539
C 0.28061116 -0.026070831 -0.37489402
C -0.37464753 0.96909654 0.32255074
C -0.87379724 0.31596768 1.4723144
N -0.5747437 -0.96918184 1.4939687
N 0.13403495 -1.1567217 0.3564992
H 1.0240108 0.89788806 -1.9856117
H 0.73618263 -0.7100881 -2.2276342
H -0.47917324 2.0072157 0.03901455
H -1.4509485 0.74571425 2.2807438
H 0.54451716 -2.0582159 0.17570268
