11

N 1.3678374 -0.6670116 2.595008
C 0.6636581 -0.6749414 1.6806195
C -0.24138932 -0.65464133 0.5143149
C -0.53169936 0.74194264 -0.074368134
C 0.24097091 0.2225592 -1.2926892
O 0.40236047 -1.0764893 -0.6868112
H -1.1180174 -1.2673599 0.74961495
H -1.5932978 0.93137336 -0.24266057
H -0.081379145 1.5779622 0.4603925
H -0.3179807 0.16327736 -2.2301383
H 1.2089368 0.7033291 -1.4732822
