11

N 0.11000338 1.85316161 2.07653309
C 0.67930640 -0.08192398 0.43853974
C -0.46110468 -0.69028540 -0.36081715
C 0.37723190 1.00265300 1.33974917
C 0.55758964 0.13031607 -1.05739532
O -1.72337721 -0.12477467 -0.27367905
H -0.42843328 -1.77382191 -0.47752439
H -2.09359601 -0.32236111 0.59449028
H 1.45862430 -0.75313602 0.78699616
H 0.22988291 1.11388057 -1.38060147
H 1.29387261 -0.35370782 -1.68629082
