10

N 1.3797312 0.40610874 2.6932049
C -0.94635606 0.29965112 -1.4689584
C -1.5147104 0.7526714 -0.41597897
N -0.033550173 0.7990184 -0.41609296
C 0.66649497 -0.23011383 0.26320457
C 1.0675669 0.14654484 1.6141076
N 0.9784474 -1.3165071 -0.30254397
H -0.85616374 -0.082742706 -2.4704502
H -2.3137822 1.1170492 0.20945732
H 1.5723222 -1.89168 0.2940499
