10

N 0.6057776 -0.1739123 3.304338
C 0.3515046 -0.028312376 2.1864064
C 0.041240957 0.13522948 0.7995782
N -0.65844136 1.1208627 0.28407034
C -0.7035357 0.86245733 -1.0535283
C -0.023592664 -0.2912413 -1.349834
N 0.45211416 -0.7522485 -0.15397567
H -1.2249099 1.5211198 -1.7359134
H 0.15911976 -0.8096625 -2.2777991
H 1.0007224 -1.5842925 -0.0033425284
