13

N 0.7125805 3.0916572 0.323266
C -0.07512973 -0.34056988 0.9426436
C 0.59025824 1.9502275 0.13687555
N -0.14265005 -1.6969228 0.3983702
C 0.49015743 0.5606434 -0.121822655
N -0.31207561 0.33684906 -1.4670919
H 0.7993967 -2.063372 0.30168885
H 0.53486305 -0.23930208 1.8526958
H -0.7273703 -0.59306234 -1.3956544
H -0.64864206 -2.3128355 1.024891
H 0.8175121 0.26918316 -1.4558941
H -1.1075633 -0.054558996 1.2117704
H -0.93133706 1.0920631 -1.7517384
