13

N -1.6540335 0.938676 2.592714
C -1.1143332 0.7415924 1.5773845
C 0.9528205 0.20470338 0.27433214
N -1.2044052 -0.5990666 -0.41593364
C -0.5174797 0.5157673 0.3257202
N 1.2997605 -0.0147628905 -1.1438196
H -1.3296003 -1.47263 0.10382541
H 2.234786 -0.39175606 -1.2493446
H -2.1127276 -0.30927023 -0.77601534
H -0.55741143 -0.77160466 -1.2052372
H 1.2490008 0.8705297 -1.6384939
H 1.5108967 1.0201559 0.7552829
H 1.2427267 -0.7323342 0.7995847
