11

C -0.84053759 0.64468189 0.36344458
N -0.37198361 -0.28665497 1.24239985
C -0.03562407 0.00230409 -0.78703760
O 0.90304522 0.83528183 -1.40169939
C 0.55633278 -0.91849416 0.30468810
O -1.55191453 1.61411103 0.46665782
H 0.46879472 1.67641615 -1.59385019
H -0.67185464 -0.52822787 -1.50792467
H -0.46079162 -0.34901666 2.24497611
H 0.39418806 -1.98944629 0.16962589
H 1.61034554 -0.70095485 0.49871950
