11

N -0.18784619 0.85435071 -1.83766370
C 0.01858547 0.23621437 -0.60788484
C -0.92187970 0.08572610 0.44630658
C -0.25065521 -0.65365642 1.39144747
N 0.97773016 -0.89694042 0.88912258
N 1.16920477 -0.35390917 -0.32897806
H 0.68195843 1.00413505 -2.33128536
H -0.72684359 1.70633516 -1.77987143
H 1.72864204 -1.41756733 1.30912943
H -0.55410599 -1.02005079 2.36197175
H -1.93479058 0.45536260 0.48770618
