11

N -1.3002573 -0.98763275 -1.029375
C 0.94711083 0.7447656 1.1234858
C -0.060936637 -0.19961241 1.008769
C -0.30750754 -0.28581825 -0.36694145
N 1.3859085 1.1575184 -0.07485352
N 0.55925167 0.4738237 -1.0567101
H -0.5528109 -0.74851894 1.8006554
H -1.0820836 -1.1498048 -2.0016217
H -1.5919673 -1.833559 -0.56240386
H 0.60057956 1.6874619 -0.86251104
H 1.402713 1.1413767 2.0215063
