11

N 0.10249363 0.7128434 -1.7212324
C -0.004424118 0.16643347 -0.43745258
C 0.88896245 -0.50481915 0.36791238
C 0.12976786 -0.85943174 1.507817
N -1.1179931 -0.4419112 1.4325372
N -1.1814942 0.18236479 0.23548682
H 1.0479152 0.6321188 -2.0750551
H -0.19003572 1.680909 -1.7709528
H 1.931773 -0.7003652 0.16658078
H 0.46001732 -1.3989731 2.3857424
H -2.0669827 0.5308308 -0.0913831
