11

N -0.24067483 2.70621847 1.19612628
C -0.20108926 1.53819485 0.79525446
C -0.20030956 0.35150508 0.23710495
C 0.62821889 -0.40168348 -0.76678947
C -0.39276630 -1.52016583 -0.47814752
O -1.08175487 -0.69002998 0.48971329
H 0.26584213 2.83629222 2.07113795
H 0.61143867 0.00036418 -1.78186804
H 1.65537371 -0.61211980 -0.45709648
H -1.05243946 -1.79104878 -1.30622236
H 0.00816099 -2.41752709 0.00078649
