11

N -0.011116779 -2.9408274 1.1377885
C 0.36685526 1.4587543 -0.13875915
C -0.084141366 -0.40656376 0.48556325
C -0.688884 0.43365777 -0.60021794
C 0.0054556928 -1.7657758 0.77013713
O 0.78756976 0.55317 0.9283501
H 0.758084 -2.1534004 -0.005312628
H -0.00407944 2.3947985 0.28287262
H -1.7241946 0.7296451 -0.40524897
H -0.5958986 0.057204276 -1.6230348
H 1.1903502 1.6393371 -0.832138
