10

O -0.01323576 1.96861472 1.16621932
C 1.29950094 1.48814393 -0.06091017
C -0.22411637 -1.31117829 -0.39527587
C 0.12380660 0.93831988 0.45036454
N -0.59082770 -0.18142768 0.44069761
H -0.06126285 -2.20478467 0.21554457
H 0.71413628 -1.06096651 -0.90062196
H -0.99200623 -1.51708516 -1.14698814
H -1.31592794 -0.26932641 1.13806873
H 1.05993321 2.14969033 -0.90709835
