12

C -0.6786331 0.44833195 0.67398924
C -0.085719556 -0.0055623706 -1.0741128
N 0.7667566 1.0040662 -1.1862816
N 0.42852068 -1.1993458 -0.39678073
C 0.29860857 -0.6863474 0.96061486
O -1.3339224 -0.023663078 -1.367716
H -1.7351252 0.22550352 0.761177
H -0.12388204 -1.4176115 1.6595165
H 1.226391 -0.27071798 1.3687403
H 1.4013665 -1.325031 -0.6557675
H 0.23669457 1.7741429 -1.6080467
H -0.40105549 1.4762347 0.8646671
