12

C 0.75928116 -0.39099205 0.87244856
C 0.9276301 -0.666901 -0.6246061
N -0.6415262 -0.023644911 0.88927627
N -1.9744731 1.2903768 -0.5417009
C -0.96534324 0.56085104 -0.32980946
O -0.013058443 0.21203227 -1.2434627
H 1.9226182 -0.437095 -1.0072984
H 1.4113292 0.43022725 1.2005913
H -2.019778 1.557203 -1.5209346
H 0.66426617 -1.7021211 -0.87053436
H 0.95643765 -1.2751112 1.4814097
H -1.0273832 0.4451748 1.6946206
