11

O -0.07159784 -1.81353501 0.21595502
C -1.22223898 0.29088248 -0.39834087
C 0.05189419 -0.57695907 -0.43492380
N -0.47026212 1.36584090 0.31887484
C 0.55619746 0.60770538 0.34694132
O 1.75468312 0.82296659 0.89633965
H -2.01518255 -0.14336781 0.21411207
H 0.80632942 -2.19781016 0.31150994
H 0.50506391 -0.66619308 -1.43180441
H -1.61582538 0.61876325 -1.36449630
H 1.72093896 1.69170624 1.32583259
