11

O -1.5039548 -1.0425826 0.38164312
C -0.16688906 -0.77135265 0.06823456
C 0.027128547 0.23480767 -1.093366
N 0.7594922 1.0778726 -0.14752924
C 0.5041533 0.30405664 0.94827664
O 0.68173534 0.4409769 2.1318226
H -1.5617942 -1.1264172 1.3422043
H 0.436578 -1.6823078 -0.037000354
H 0.62748533 -0.114820845 -1.93651
H -0.91894597 0.659533 -1.435232
H 1.1150115 2.020234 -0.2225436
