11

N -0.40637583 1.6280047 0.8066789
C 0.40951204 -0.34168944 -0.88450426
C 0.8781635 1.5213373 0.31044564
N -1.2352144 0.65676606 0.6459374
C -0.6623676 -0.44563594 0.10237893
N 1.2672617 0.6813573 -0.6089848
N -0.74897087 -1.6993555 0.42987254
H -1.5405989 -2.0579963 0.964244
H 1.541738 2.3276985 0.60381734
H 0.2908337 -1.7246151 -0.43061662
H 0.20601864 -0.54587126 -1.939269
