11

N -0.42331612 -1.6463004 -1.066743
C -0.23495685 -0.48834726 -0.358046
C 1.0129355 -0.13237965 0.20061968
N 1.1638097 1.0125324 0.82274044
C 0.06608179 1.7890735 0.8729837
N -1.1210718 1.4894247 0.37269118
N -1.2785708 0.3285049 -0.24657862
H 0.17679438 -2.4285192 -0.86436194
H -1.388831 -1.8798786 -1.2372767
H 1.8757522 -0.7932365 0.13205487
H 0.15137285 2.7491264 1.3719163
