11

N -0.9684466 -1.144755 0.7246041
C -0.4215975 -0.1952805 1.357264
C -0.0992556 -0.14235266 0.006402517
C 0.9686424 -0.26549804 -1.0037458
C -0.24038628 0.63127685 -1.242815
O -0.30111566 0.32494622 2.5616858
H 1.0147958 -1.1901898 -1.5759085
H 1.9297631 0.20719458 -0.82202727
H -0.09528062 1.7081441 -1.2168314
H -0.97181284 0.28639913 -1.970239
H -0.81530595 -0.21988487 3.1816103
