11

O -1.675072 -0.32445112 -1.2143265
C -0.835958 0.23027545 -0.5079293
C 0.5857771 0.113184445 -0.4587255
N -0.9266778 0.938819 0.71088576
C 0.4747529 0.5766274 1.0097554
O 0.7526096 -1.4622741 -0.7628922
H 0.50964564 -0.209392 1.7732815
H 1.1338315 1.4004846 1.2880886
H -0.13781439 -1.6413473 -1.1669621
H -1.296632 1.8755246 0.79643685
H 1.4155374 -1.4974508 -1.4676124
