10

O 0.54977020 -1.12081483 -1.18456884
C -1.62156845 1.54949616 -1.40102651
C -0.85948093 0.75187854 -0.91732120
O 1.15774461 -1.15132272 1.46026249
C 0.33623387 -0.16039904 0.97155339
C 0.03704280 -0.19223527 -0.32872018
H -0.07917595 0.57268605 1.65208937
H 1.62406978 -0.83024562 2.24004067
H -2.29558053 2.25761913 -1.82653670
H 1.15094448 -1.67666278 -0.66577245
