10

O 0.63399583 -0.9284629 -1.1888192
C 0.08274009 -1.5392141 2.1940382
C 0.13628004 -1.0038092 1.1194866
O -0.26083282 1.3107274 -1.8095189
C 0.18218364 -0.35607556 -0.18030192
C -0.2608573 0.99473953 -0.25460997
H 0.4890603 1.7470237 -1.1294428
H 0.039427005 -2.0218034 3.1464903
H -1.1602005 1.367477 0.21834788
H 0.11820366 0.4293973 -2.1156702
