10

O 0.077515416 -0.73865205 -1.5524371
C 0.49473724 -0.4979631 0.76809174
C -0.87781113 1.0956019 -0.41786486
O 1.2034967 -1.6777766 0.73139906
C -0.067703485 -0.080317214 -0.36789793
C -1.5639023 2.0852532 -0.44634792
H -2.1697335 2.962328 -0.46865734
H 0.66059786 -1.4940203 -1.3822583
H 0.37088642 0.021401156 1.7104452
H 1.8719169 -1.6758553 1.4255276
