10

O -0.95301163 1.8538151 0.99654895
C -0.29563335 1.1065215 0.025541151
C -0.1406353 -0.33794737 0.46594495
O -0.56693625 -0.7060008 1.5397884
C 0.5357686 -1.2343851 -0.4589179
C 1.1017954 -1.9476693 -1.2465138
H -1.1488073 1.2396843 1.722972
H 0.7077094 1.5082308 -0.18241595
H -0.8429578 1.1120043 -0.92910236
H 1.6027081 -2.5942538 -1.9338454
