10

O 0.71163267 -0.4323267 2.0308104
C -0.13099474 -1.0972729 -0.071747355
C 0.30218062 -0.062109794 0.8164074
N -0.54831654 -0.77292454 -1.2516404
N 0.31365293 1.1954411 0.50012225
C -0.11462904 1.6103458 -0.7592144
N -0.5227583 0.5548205 -1.510992
H -0.12475034 -2.1453786 0.2027108
H -0.84789556 0.7604369 -2.4458418
H 0.9618783 0.38896808 2.4893854
