10

O 1.4469765 -1.2712035 0.8700722
C 0.54779506 -0.4559317 0.32258707
C 0.88405657 0.89341635 0.08580697
N 0.00914234 1.7127556 -0.45488513
N -1.2080245 1.2594497 -0.780066
C -1.466555 -0.011369178 -0.535754
N -0.64091593 -0.91921484 0.009491225
H 1.0279572 -2.1426811 0.95419437
H 1.8600385 1.2936078 0.33593327
H -2.4604707 -0.3588292 -0.8073801
