11

N -0.7329616 -0.75879294 1.5616449
C -0.19467594 -0.13044703 0.42103353
C -0.12985198 -0.6109607 -0.869674
N 0.4027663 0.394517 -1.6175605
N 0.69177705 1.4839461 -0.9070799
C 0.33077633 1.17898 0.3325071
H -0.21629108 -0.5344974 2.402018
H -0.7714092 -1.7641038 1.4607311
H -0.4172878 -1.5572225 -1.3022326
H 0.5850745 0.3922233 -2.6063793
H 0.4520834 1.9063578 1.1249915
