11

N 0.7557049 1.2464685 -0.48925346
C 0.37273705 -0.80959594 0.28384978
C 1.28365 0.35394108 0.26978612
N -0.46864352 0.6069852 -0.9360271
N -0.5720925 -0.7861496 1.2420222
C -0.24361187 -0.7973093 -0.998817
H -0.19336578 -0.5701073 2.1652777
H 2.1631434 0.5614946 0.8673199
H -0.8889091 1.134904 -1.6911943
H -1.0360912 0.4138591 0.3751488
H -1.1725215 -1.3544904 -1.0881127
