11

O -2.26808841 -0.11587738 -0.92529541
C -1.14243925 -0.05888088 -0.52422098
C 0.14395759 -0.87432592 -0.83613121
N 0.76499204 1.21264317 0.11260464
C 0.73332129 -0.21257750 0.41317202
C -0.48699646 0.62064095 0.65140845
H 1.36919752 -0.66183877 1.16543086
H -0.05578275 -1.94599509 -0.74899207
H 0.66582314 -0.65216300 -1.76889000
H 1.20310012 1.70638764 0.88811596
H -0.92708508 0.98198687 1.57279785
