11

O -2.439535 0.23349755 -0.08928611
C 0.79195976 -0.3315577 0.12856784
C -0.27181378 -0.81956035 -0.85949004
N 0.9211015 1.097655 -0.12296989
C -0.14561114 0.6245712 0.797121
C -1.2485068 0.12150673 -0.09954339
H -0.069804095 -0.59310335 -1.9081312
H 1.5743406 -0.9110472 0.60200185
H -0.19299468 0.9663652 1.8238337
H -0.57953423 -1.8621466 -0.7399648
H 1.6603978 1.4738194 0.46786124
