11

O -1.2754173 -0.17731293 1.9328401
N -1.1656425 -0.7674821 0.67707026
C -0.2392633 -0.23231483 0.0068944953
C 0.2974395 -0.46758988 -1.3781993
O 1.2576187 0.5874786 -1.1745533
C 0.7895685 0.8576944 0.16144653
H -2.0055127 -0.6650815 2.3330073
H -0.39174962 -0.25033948 -2.2019572
H 0.77852005 -1.4380159 -1.5463071
H 1.5607784 0.6791224 0.919772
H 0.39366025 1.8738414 0.2699865
