11

O -0.2791703 1.5335358 -0.5195804
N 0.7663521 -1.4657568 -0.29567486
C -0.14477776 -0.51136714 0.05654196
C -0.89995027 0.3130702 -0.96924317
O 1.0657144 -2.0173523 0.82289416
C 0.42388004 0.86767966 0.525967
H -1.986903 0.3501119 -0.83386743
H 0.10879173 -1.2975308 1.2674477
H 1.514774 0.950414 0.4430037
H -0.66015023 0.074053675 -2.0114858
H 0.0914395 1.203142 1.5139973
