10

O 1.6652982 -0.12910579 -1.4491175
C 1.1588901 0.78833157 -0.8433132
N 0.27594173 0.6482048 0.18735066
C -0.21651241 -0.65764225 0.57377726
C -1.6490375 -0.8169095 0.28305313
N -2.779067 -0.9179065 0.074042715
H 1.3841519 1.8480717 -1.056968
H -0.14683758 1.4727123 0.5884892
H 0.35607514 -1.3922119 0.0025904244
H -0.048902474 -0.8435445 1.6400954
