11

N -0.62700945 -0.71024835 -1.9414531
C -0.32335594 -0.27622843 -0.8002275
C 0.7058941 -0.87621796 0.13446079
O 0.4363626 -0.2466983 1.3715187
C -0.12874655 0.9894365 1.0493457
O -0.8456235 0.8108292 -0.17315893
H -1.3352454 -0.12740064 -2.380797
H 0.58585364 -1.9554049 0.23762153
H 1.7206141 -0.65136486 -0.22593443
H -0.8275198 1.2820417 1.8341103
H 0.63877606 1.7612559 0.8945135
