11

N 0.17511481 1.5482119 -1.4975871
C 0.41200382 -0.7804193 -0.71286005
C -0.40471688 -0.38076222 1.3414742
O -0.5177386 0.8536324 0.6332381
C 0.021698205 0.6760204 -0.6038314
O -0.24553946 -1.3855922 0.3855267
H 0.460557 -0.3187924 2.015872
H 1.5040478 -0.8872823 -0.64316624
H -0.14175217 2.4596035 -1.1765997
H -1.3253953 -0.5556072 1.9012467
H 0.06172072 -1.2290128 -1.6433132
