11

O -1.1188736 1.2529128 -0.48657027
C -0.6120438 0.7316808 0.71882564
C 0.46194366 -0.30021983 0.45432585
C 0.4243561 -1.1358048 -0.7406245
O 1.2837594 0.004713614 -0.67027324
H -0.3451229 1.4271626 -1.0417143
H -0.19251925 1.5259302 1.3571622
H -1.4458499 0.27244297 1.2582802
H 1.0120114 -0.65350616 1.3270242
H -0.41049728 -1.0316482 -1.4305192
H 0.94283646 -2.0936642 -0.7459167
