11

O -1.11138485 1.26715610 -0.47862117
C -1.09540832 -0.13977822 -0.45188941
C 1.09849500 0.08113155 0.89776846
C 0.26091553 -0.66433873 -0.03545081
O 1.34782125 0.12716159 -0.50986498
H -0.28482115 1.53123895 -0.90996138
H 0.71948361 1.00924913 1.32153524
H -1.85660386 -0.46741923 0.26412711
H 1.86003430 -0.44074754 1.47512546
H -1.35232893 -0.56412684 -1.43501687
H 0.41379771 -1.73952697 -0.13775176
