10

N 0.70640460 -0.33548730 3.22428033
C 0.35360596 -0.12655716 2.14741452
C -0.08741104 0.13511271 0.80085910
N -1.11169591 0.93993297 0.51578218
C -1.28212830 0.96638484 -0.84500756
C -0.20291214 0.05687408 -1.40445711
N 0.51773011 -0.43184683 -0.22967440
H 0.46050446 0.61873611 -2.06969041
H -0.65918168 -0.76693991 -1.96175128
H 1.30508394 -1.05620963 -0.17775557
