12

N 0.096679755 0.10177676 -1.2163799
C 0.6664306 -0.34828168 0.9960121
C 0.13301331 -1.2649205 -0.92396516
C -1.2254006 1.2436033 0.47361976
N 0.45789957 -1.5967901 0.25897524
C 0.12285706 0.78531295 0.07718636
N -2.2911923 1.588555 0.75403315
H -0.060925543 -1.9806126 -1.719204
H 0.15768671 -0.38422537 1.9621817
H 1.737442 -0.2144726 1.1794932
H -0.5848764 0.41916385 -1.8921983
H 0.79038614 1.650891 0.050246064
