11

N -0.06709319 -1.6391381 0.12979929
C 0.20522974 -0.5743367 0.92985976
O 0.787248 -0.6257015 1.9933444
C -0.24773249 0.7464003 0.35947427
C 0.2548373 1.1933893 -0.94157845
O -1.0696231 0.697462 -0.8007845
H -0.72804093 -1.52831 -0.62296426
H 0.12770344 -2.5622792 0.4889139
H -0.5260011 1.48568 1.1066914
H 0.332321 2.260414 -1.1446544
H 0.93115133 0.54642004 -1.4981018
