11

N 0.21233495 -1.6224015 0.50667995
C -0.24634947 0.6998995 0.056297567
O 1.1596804 0.8297555 0.008395982
C 0.9357249 1.0775783 -1.3637347
C -0.7195318 -0.64671123 0.59178823
O -1.8540756 -0.7720104 0.9979912
H -0.5465734 0.6360979 -1.0701149
H 0.6526304 2.1668646 -1.3970838
H 1.1598948 -1.3910223 0.25317
H -0.7420392 1.5489942 0.52781117
H -0.011695757 -2.5270445 0.8887995
