12

C -1.4844692 0.32545757 1.5752757
N 0.78806233 0.29861426 -0.97672296
C 0.6501786 -0.78835875 -1.780231
N -0.72303003 0.92019653 0.7656063
C 0.5437595 0.29174584 0.4474126
O 0.6928668 -0.754254 -2.9889243
H 0.78777534 1.1968919 -1.4489307
H 1.3500824 0.85037416 0.94147515
H 0.58859265 -0.74974793 0.80287
H 0.50056916 -1.724529 -1.2098649
H -1.2604748 -0.65243596 2.024124
H -2.4339125 0.78604525 1.8479102
