12

C -1.1220521 -1.0161928 -1.6996205
N -0.9970097 -0.58997905 -0.32041818
C 0.056519363 0.020784017 0.008345313
N 0.24564807 0.47054884 1.311092
C 1.3520789 1.1497542 1.7461319
O 1.5041845 1.5459453 2.8783355
H -2.0004234 -0.5374707 -2.1429372
H -0.24442856 -0.7868271 -2.3229444
H -1.2992678 -2.0958514 -1.7269548
H 0.893221 0.25025243 -0.6631584
H -0.49007446 0.28885356 1.9853011
H 2.101604 1.3001828 0.9468274
