12

C 0.07817801 -2.0209138 -1.3789619
N -0.51302326 -1.0184141 -0.65304935
C 0.17551275 -0.1270336 0.15068276
N -0.4162136 0.89054143 0.67502266
C 0.18860795 2.0040777 1.2941535
O -0.5242897 -2.793865 -2.0891747
H -0.48712653 2.5194001 1.9683592
H 1.1755757 -2.0447938 -1.2418646
H -1.5210633 -0.94299006 -0.72877556
H -0.63375264 1.8979603 0.13781205
H 1.2467643 1.9717826 1.544563
H 1.2308303 -0.33575147 0.32123327
