10

N 1.2595224 -0.3532356 -0.27033994
C -0.8646054 -0.122269094 0.64459765
C 0.43654588 0.26376292 -1.1468617
C 0.4434054 -0.560111 0.90209687
C -0.86293286 0.38588366 -0.65364355
H -1.7057928 0.8225226 -1.1762937
H 0.8104329 -1.2181767 1.6808177
H 0.82957685 0.61985844 -2.0903635
H 1.3542066 0.34185785 0.7808137
H -1.7003589 -0.18009306 1.3291768
