10

N 0.9734477 -0.8137569 0.61210823
C -0.19514905 -0.109414786 1.1247946
C -0.82483643 0.58471286 -0.047693297
C -0.07641846 0.29956344 -1.1229728
C 1.0147686 -0.56570584 -0.6466096
H 0.120782845 0.58968014 1.9097368
H -1.7182374 1.1946503 -0.00666366
H -0.22042486 0.62355363 -2.146537
H 1.7978312 -0.9754063 -1.2805946
H -0.8717638 -0.82787675 1.6044315
