14

C -2.19156642 -0.30450263 1.84635710
N -1.42027402 0.22596890 0.63154173
C -0.03555335 -0.28926074 0.30129792
O 0.44566914 -1.18185561 0.93429851
N 0.53927241 0.35691133 -0.75457853
C 1.81199597 0.04171889 -1.24161310
N 2.27091801 0.68176821 -2.23114977
H -1.35548152 1.23790036 0.74090882
H -2.11473789 -1.39484434 1.69737639
H -2.01988129 0.07324900 -0.17935259
H 0.05408010 1.09441692 -1.25585548
H 2.28823017 -0.76888438 -0.68840265
H -1.47174260 -0.11679674 2.66197942
H 3.19907108 0.34421090 -2.46280816
