14

C -0.7841078 -2.448407 -1.3310665
N -0.071273066 0.8250982 0.56621706
C 0.86495465 1.7515761 1.0271072
O 1.3220574 -0.39024886 -0.78138435
N 0.4901109 2.6738892 1.8068984
C 0.24599296 -0.18381193 -0.30622247
N -0.92342246 -1.0544453 -0.66569537
H 1.2771246 3.2560642 2.0728278
H -1.4970024 -1.1846712 0.16281211
H -1.5040511 -0.54207975 -1.3310564
H -1.0148326 0.9508485 0.91599363
H -0.16393784 -2.9892836 -0.5980331
H 1.8665768 1.5713993 0.6345817
H -0.10819011 -2.2359283 -2.1729798
