10

C -0.13823412 -0.8369901 -1.2364348
O 0.11641919 0.49637893 -1.2279186
C -0.25021496 -0.20355357 0.94396436
O -0.25425893 -1.3029462 0.03156768
C 0.36877024 0.9188016 0.11302028
O -0.24498895 -1.5018481 -2.217725
H 0.3356389 -0.47682032 1.8221831
H -0.10059034 1.8921465 0.26908606
H 1.449396 1.0004535 0.2617954
H -1.281937 0.01437772 1.2404611
