13

N 1.6554362 1.7946724 0.5007524
C -0.5692084 0.36858243 0.4597773
C 0.4793132 -0.40793365 -0.46975255
N -1.6662076 0.99272674 -0.24080242
C 0.6517838 1.0926592 0.49207148
N 0.87202597 -1.663491 0.10539357
H -2.3766253 0.2962309 -0.44174635
H 0.24423197 -2.4224272 -0.14299464
H -2.0894186 1.7179288 0.3263172
H 0.1226265 -0.3333845 -1.5007093
H -0.7826871 -0.2189477 1.3614478
H 1.6454471 0.70697737 -0.28096676
H 1.813282 -1.923594 -0.16878767
