13

N -0.6080594 -0.8629785 -1.4361407
C 0.4409657 -0.040764436 -0.8421044
C -0.08120483 0.54940546 0.48027626
N -0.5254502 -0.53248966 1.3482908
C 0.98747003 1.3213282 1.1369702
N 1.8200557 1.9443048 1.6397535
H -0.5187066 -0.88374346 -2.4471729
H -0.51620084 -1.8241878 -1.127383
H 0.68777883 0.7834039 -1.5192783
H 1.3647211 -0.5975759 -0.6288702
H -0.88504076 1.2604239 0.2342687
H -1.3466763 -0.94341904 0.91213226
H -0.8196527 -0.17370729 2.2492576
