11

N -1.72438008 -0.15403490 0.72710474
C -0.40223798 -0.16516237 0.31406130
O 0.68246277 -0.12108815 1.23000665
C 0.70488230 0.75166130 0.07520936
C 1.03060497 -0.13564903 -1.11176511
O -0.08346141 -1.00977033 -0.76148501
H -2.06324773 -1.08609852 0.93008943
H 1.98273413 -0.66934329 -1.08577999
H -1.85528372 0.44455634 1.53326542
H 0.87325277 1.80703167 0.23237648
H 0.85467410 0.33789734 -2.08308382
