11

N -0.06598559 -1.6411631 0.13303399
C 0.20627655 -0.5768266 0.9326009
O 0.7919343 -0.62628347 1.9967084
C -0.2486704 0.7426072 0.35832283
C 0.2520382 1.1969585 -0.9429361
O -1.0691067 0.6967617 -0.8023111
H -0.72416425 -1.5295094 -0.6223702
H 0.13132161 -2.5634637 0.48790693
H -0.5287519 1.482529 1.1058598
H 0.3271646 2.265079 -1.143763
H 0.9279437 0.55331093 -1.503053
