10

O 0.061627902 -1.4501196 1.6648207
C 0.03820625 -0.47745097 0.7385872
N 0.1370146 0.80124205 0.95115364
C 0.056490593 1.3644624 -0.3107041
C -0.09012102 0.40579098 -1.2652721
N -0.10066516 -0.799283 -0.5671571
H 0.16323137 -0.9932096 2.5113835
H 0.110965334 2.436286 -0.4450359
H -0.18584158 0.44295505 -2.339499
H -0.19090827 -1.7306733 -0.9382767
