10

O -1.3803852 -1.6105282 0.41137642
C 1.0050963 0.7226113 -0.4180401
N 0.60468644 -0.59940684 -0.21911764
C -0.12423847 1.5879604 -0.22560383
C -0.70098275 -0.49719208 0.14659746
N -1.1511042 0.7168894 0.21670218
H 1.9464631 0.96221465 -0.8982768
H 1.14026 -1.4499844 -0.26096475
H -2.275444 -1.3281046 0.65395063
H 0.93564874 1.4955405 0.59337646
