10

N 1.4802189 0.49747697 0.9204091
C 0.22490652 0.6234829 0.37596944
O -0.44834262 1.6295131 0.4428759
N -0.22969502 -0.5455864 -0.23769404
C -1.4607085 -0.6393869 -0.86953396
O -1.8559211 -1.6712881 -1.3559496
H 1.8811814 1.3717431 1.227917
H 2.1285646 -0.16752954 0.5297657
H 0.2894362 -1.4105515 -0.16227342
H -2.0096402 0.31212613 -0.8714858
