10

N -0.16483419 -0.3003342 0.3974015
C -1.3481619 -0.8643356 0.4913302
O -1.4016861 -1.488622 1.5956635
N 1.5379528 0.90745527 -0.5473837
C 0.25939253 0.46964195 -0.6965403
O -0.4392386 0.69768715 -1.6638343
H 1.8854932 1.5553983 -1.234597
H -0.19554739 -0.9625877 1.5662186
H 2.0227168 0.80657536 0.32824093
H -2.1560872 -0.8208787 -0.23649937
