11

C 0.047740996 -0.6317955 1.974713
N 1.7251034 0.8500766 0.8552281
C 1.0607537 0.17653969 1.5691354
C -0.5815445 0.42821866 -1.7409673
N -0.05040209 0.24684256 -0.40466037
H -0.8059309 -0.19221918 2.4792128
H 0.22437248 0.6659774 -2.4517593
H -1.31347 1.2373911 -1.7439462
H 0.2036638 -1.7025588 2.0367124
H 0.54672724 -0.5797722 -0.47458336
H -1.057014 -0.49870035 -2.0990849
