10

O -0.82836014 -0.6660657 0.48118407
C -1.733002 0.3267427 0.54268515
C 0.99247015 0.619582 -0.52709764
O -1.6098944 1.4598961 0.16990246
C 0.43456006 -0.48253575 -0.032483395
O 1.0097576 -1.6913412 0.078083724
H 1.9141152 -1.6325389 -0.2534255
H -2.6441448 -0.072701134 1.0045457
H 0.45306978 1.5548906 -0.56975913
H 2.011428 0.58407116 -0.8936352
