11

O -0.27801383 1.6389953 2.1690161
C -0.21456836 0.86907744 1.234565
C 0.7510798 1.0211545 0.13628702
C 0.77929455 0.13652411 -0.8725754
N -0.10306036 -0.92105365 -0.8779193
C -0.99303424 -1.0447013 0.1519347
N -1.0879276 -0.24634998 1.1501517
H 1.4331205 1.8611734 0.16681479
H 1.4638655 0.18776467 -1.7127857
H -0.09592485 -1.5970948 -1.6222353
H -1.6548312 -1.9054898 0.076746635
