11

O -1.35908584 0.69534216 2.04224505
C -0.83826689 0.33009969 1.02591323
C 1.47556318 0.69840341 0.37165542
C -0.12318563 -0.96940614 -0.71212832
N 0.53227786 0.30419828 -0.79416025
C -0.93543912 -0.98411534 0.34030174
N 0.04198250 1.15535813 0.24392969
H 2.05210587 1.53002932 -0.07445650
H 0.56873745 0.77046463 -1.69463859
H 0.12399522 -1.72305333 -1.44502912
H -1.53868469 -1.80732092 0.69636790
