11

O -1.9977921 0.39688686 1.5338472
C 0.18080026 -0.8726825 -0.8171819
C 1.2226654 0.67826736 0.92099106
C -0.9301832 -1.0405568 -0.10646742
N 0.7435838 0.41545558 -0.5301195
C -1.14886 0.1768107 0.71624976
N -0.11492621 1.115219 0.3730887
H 0.7034814 -1.5203862 -1.5053028
H 1.8594285 1.57306 0.79099935
H -1.562966 -1.9160652 -0.06869534
H 1.0447683 0.9939912 -1.3074092
