11

N 1.61628134 -1.59372403 0.64578107
C 0.75319785 -0.73582992 0.30325066
C 0.85654596 0.67068019 0.73718917
N 0.02338533 1.58900299 0.42635140
C -1.05269970 1.20424267 -0.37818680
C -1.20426032 -0.05132224 -0.80399880
O -0.32894912 -1.04194901 -0.48846757
H 1.40070011 -2.51277426 0.26492834
H 1.71481900 0.90437117 1.36313863
H -1.76458143 1.97572040 -0.64243729
H -2.01443888 -0.40841791 -1.42754894
