10

O -2.0268126 0.15951875 0.67153597
C -0.90587085 0.048381172 -0.15665047
C 1.5196062 -0.39284647 -1.3045434
O 1.5940609 -0.17604238 -0.01026452
C 0.3642011 0.075789064 0.65590024
O 0.4248708 0.31311363 1.8234832
H -0.84965193 0.8585609 -0.90199447
H -0.9628898 -0.8885369 -0.7248742
H 2.5905032 -0.5468545 -1.5644577
H -1.748017 0.54891664 1.511865
