9

O -0.98151020 0.89496087 -1.08779574
C -1.12991921 -0.85131003 1.23110946
C -0.06928562 0.30725291 -0.58240239
N -0.17450854 -0.89148554 0.17662854
C 1.40924541 0.70666529 -0.72364435
N -1.71975250 -1.34492917 0.26763162
O 1.71319120 1.74585902 -1.23306529
H -1.18362818 -0.54284022 2.26835319
H 2.13616746 -0.02417323 -0.31681519
