9

O 1.6241874 1.5037943 -1.5230725
C -0.64358187 -1.6120819 0.78986657
C 0.23015554 0.5312139 0.13997251
N -0.6440333 -0.49163458 -0.040498763
C 0.49918696 1.2706348 -1.1724863
N -0.5248671 -1.0255657 1.8730574
O 0.71966475 0.8820066 1.1952868
H -0.404036 1.5698481 -1.734803
H -0.8566762 -2.6282156 0.4726773
