11

O -1.4266871 -0.9704168 -0.9948529
C -0.1645103 0.26575807 0.7910174
C 1.1579207 -0.22618715 -0.8414354
O 0.95277566 -0.4349396 0.5404933
C -1.2611351 -0.006701422 -0.1387374
N -0.37282217 1.1115555 1.72804
H 1.525237 0.7845858 -1.0307165
H -2.2025752 0.46368697 0.14650294
H 1.8152378 -1.0087109 -1.2328261
H 0.4710474 1.2032543 2.2948084
H -0.49448845 -1.1818848 -1.2622939
