11

O -1.6263244 0.6483397 -0.9361542
C -0.25686112 -0.42302632 0.7504804
C -1.5366263 0.03234343 0.09258154
O 0.9559938 -0.18100803 0.23389319
C 1.153788 0.51626116 -1.0017253
N -0.4292337 -1.0514408 1.8425748
H 2.236164 0.52994853 -1.1357758
H 0.46813548 -1.3263907 2.2439196
H 0.67890936 -0.004842332 -1.8361411
H 0.7686594 1.5372525 -0.945286
H -2.4126046 -0.27743715 0.6916327
