11

N 0.06457981 0.05410111 -1.21761054
C 1.84002392 0.40409132 0.42446936
O -1.21807302 -0.54955877 -1.11632197
C -1.51463012 -0.51501572 0.25112049
C 0.62458086 -0.01567893 0.08462804
O -0.26372925 -0.60437060 0.91692378
H 2.16563336 0.34647417 1.45650219
H -2.12885602 -1.37664044 0.50304446
H 2.51043459 0.79562645 -0.32877412
H -0.07597755 1.02867484 -1.50147506
H -2.00398624 0.43229648 0.52749325
