11

N 2.2617126 -0.63998246 0.7225014
C 1.1075777 -0.31663567 0.34182122
O 0.5086098 -0.8992996 -0.7244893
C -0.85589397 -0.4986145 -0.7565906
C -0.83615196 0.80225796 0.038018692
O 0.28590238 0.618891 0.89877826
H 2.5499203 -0.05936869 1.5030637
H -1.4717656 -1.2661041 -0.27516645
H -1.161086 -0.37701243 -1.796824
H -0.662443 1.6737245 -0.600935
H -1.7263819 0.9621439 0.64982194
