11

O -1.5126405 -1.8063159 -0.49966717
C -1.2303889 0.6381847 -0.6640096
N 0.50023836 -0.77677053 0.23573779
C -0.84532726 -0.6721032 -0.18790072
O 2.1040022 0.922839 0.43232095
C 0.90561575 0.44020972 0.11847462
N -0.047470532 1.301438 -0.3626708
H 0.08382303 2.2976665 -0.43778986
H 2.644231 0.1807418 0.73948526
H -1.0952834 -2.523235 -0.0041455775
H -1.5068 -0.002654959 0.630165
