11

N -1.25581660 -1.43870729 0.32749277
C -0.14884100 -0.66647072 0.39497958
C 0.69656539 0.22241151 -0.40583807
N 0.16984956 1.57550874 -0.80792059
N -0.24369951 2.42728358 -0.05567702
C 0.80272006 -0.05411482 1.04505751
H 1.30578601 0.20205100 1.95526846
H -1.46136467 -2.02168006 1.12155517
H -1.49839371 -1.82198737 -0.57062648
H 1.39713979 -0.14108775 -1.16346161
H 0.23605466 1.71679258 -1.84082993
