14

C -0.47378427 0.5044039 0.16776034
N 0.7331327 0.54533285 0.85217583
C -1.7075945 -0.64887166 -1.4530054
O -0.4979567 -0.51086044 -0.7087522
N 2.8504632 -0.13937624 1.4054664
C 1.806907 -0.3114602 0.7026935
N -1.4645957 1.2897724 0.30067265
H 1.6411579 -1.0879128 -0.045861077
H 3.546993 -0.8409061 1.1777376
H 0.8601464 1.2766455 1.5344211
H -2.5548034 -0.8311177 -0.7854117
H -1.2911469 2.006114 0.99773574
H -1.908656 0.25319833 -2.0383816
H -1.5402635 -1.5049618 -2.1072512
