14

C -2.3923256 -0.07663222 0.97166306
N -1.3511463 0.14006521 -0.012833676
C -0.03148075 0.036230356 0.3452396
O 0.3556641 -0.08122261 1.4922113
N 0.84146017 0.10560592 -0.7350322
C 2.2151918 0.0036276313 -0.5933441
N 2.963218 0.10677167 -1.6150072
H -2.0371523 0.2949729 1.9328008
H -2.647659 -1.1380002 1.083011
H -3.2877727 0.4781444 0.6811901
H -1.5948411 -0.018250098 -0.97753114
H 0.51390845 0.3077994 -1.6697998
H 2.5167432 -0.16896503 0.44077677
H 3.9361925 0.009852684 -1.3433444
