14

C -1.85603987 -1.20398733 -0.74408888
N -1.53871152 0.73967813 0.99206871
C -0.49627402 0.32291135 0.39557380
O -0.55679173 -0.66015253 -0.51521884
N 0.80651237 0.77307042 0.55944186
C 1.93579154 0.31595644 -0.09263630
N 3.06475411 0.83633470 0.16652035
H 0.96501128 1.51834277 1.21963614
H -2.25968168 -1.64271760 0.17310627
H -1.32961802 1.48643245 1.64610589
H -2.54449498 -0.43029092 -1.09657252
H -1.71119501 -1.96933604 -1.50710191
H 1.73114022 -0.48598103 -0.80376180
H 3.78959779 0.39973919 -0.39307264
