14

C -0.09219323 -0.3067157 -0.06978141
N -0.88221014 0.70356923 -0.59258115
C -0.67837775 2.0442328 -0.33701387
O 0.8794256 -0.013376993 0.68644124
N -0.27050287 -1.5706698 -0.30198866
C 1.3978709 -1.9630373 0.8895769
N -1.4479965 2.9089322 -0.85579747
H 0.83716625 -2.8680255 1.093594
H 1.8213484 -1.5245433 1.786192
H 2.0890198 -2.042976 0.060741805
H -1.651111 0.47416875 -1.2055169
H -1.0180702 -1.904691 -0.90054053
H -1.1571482 3.8424551 -0.5770065
H 0.17277871 2.2206774 0.32368058
