11

O -1.470814 1.6300316 1.2719556
C -0.75115097 0.8425305 0.6939342
N -0.75833637 0.5600334 -0.65200424
C 0.22184351 -0.42783907 -1.035351
C 0.8731539 -0.74459636 0.28682274
C 0.3247799 -0.02601111 1.2645228
H -1.3942733 1.0131688 -1.2858579
H 0.94900507 -0.03482778 -1.7575312
H -0.23831476 -1.3194344 -1.478874
H 1.6753643 -1.4691768 0.3737746
H 0.5687425 -0.023878612 2.3186088
