10

N 1.23483778 -1.51055495 -0.33407025
C 0.25671436 -0.72080612 -0.25916948
O -0.95765472 -1.02718721 -0.76761040
C 0.31731315 0.64616408 0.39773886
O 1.35604292 1.03412664 0.89169637
N -0.84188433 1.34232572 0.37373013
H 2.03991353 -1.07657122 0.11885896
H -0.87779808 -1.91251783 -1.15540144
H -0.85872067 2.25910762 0.79116415
H -1.66876374 0.96591314 -0.05693667
