10

O 0.35391389 1.24107348 1.59534600
C 0.12516001 -0.13515461 -0.00347901
N 0.90037240 0.09681424 1.01674743
C -0.69485196 1.56445430 0.84848482
C 0.33558690 -1.28044304 -0.93244801
N -0.90775716 0.77442457 -0.15005012
H 1.20628607 -1.86354287 -0.62765272
H -1.25608563 2.44143631 1.14482045
H -0.54780835 -1.92567307 -0.93957158
H 0.48518388 -0.91338917 -1.95219729
