10

O 2.364634 -0.39764023 0.2724989
C 1.1749325 -0.19660076 0.13504091
N 0.3323136 0.57119566 0.92256653
C -0.9752145 0.5512493 0.43542403
C -0.9774631 -0.22273211 -0.6611436
N 0.32781616 -0.6792444 -0.8478429
H 0.6582063 1.0589132 1.739058
H -1.7754704 1.0906475 0.9151988
H -1.7816918 -0.49220672 -1.3276213
H 0.6519373 -1.2835813 -1.5831794
