12

N 0.19966306 -1.0778092 1.1853154
C -0.37083122 -0.53242356 -0.096470505
C 1.4557365 2.3030007 0.908828
N -1.6405404 -0.99029344 -0.57800895
C 0.73923415 -1.430529 0.092034206
N 0.71082604 1.6102736 0.2206641
C -0.18720469 0.9237811 -0.36579832
H -1.7061684 -1.9987319 -0.50428224
H 2.4689553 2.4279637 0.51650596
H -0.82601 1.4087565 -1.098249
H 1.555415 -2.0558565 -0.24606548
H -2.3990755 -0.58813214 -0.034473352
