12

N 0.83469752 -0.69845334 1.19245701
C 0.61329899 -1.47624525 0.21427788
C 1.76982561 2.03924160 -0.97885671
N 0.74462090 1.37953449 -0.83028412
C -0.34359387 0.79276390 -0.52506583
N -1.68921369 -0.68370574 0.82779931
C -0.36952558 -0.42982213 0.33015294
H 1.05469586 -2.35272767 -0.24227929
H -1.72434680 -1.57839463 1.30212857
H 2.35714048 1.79238382 -1.86782642
H -1.27928517 1.18295039 -0.91492947
H -1.96831395 0.03247442 1.49242641
