9

N 0.016818924 -0.06151945 0.5554043
C 1.3195374 -0.11697371 1.0244975
N -1.5951099 0.22786094 -0.9845969
C -0.2699162 0.34749305 -0.7177532
O 1.6100925 -0.45038405 2.1465561
H -0.6407254 -0.47550753 -1.5742258
H -1.7581105 0.6369061 -1.9104196
H 2.045547 0.18160513 0.24645802
H -0.7281336 -0.28948057 1.2140796
