9

N -0.08537526 1.58184797 -0.83500343
C -0.49427206 0.76051998 0.13062189
N 0.15724483 -0.43893947 0.06803742
C -0.11692226 -1.44151193 0.98957627
O 0.42452635 -2.51774146 0.98294185
H -0.49667355 2.49987058 -0.89036120
H 0.62643022 1.36995615 -1.53321263
H -0.88209062 -1.12253903 1.71221822
H 0.86713230 -0.69146281 -0.62481782
