11

C -0.24617138 0.71830963 0.13522089
C 0.15772616 -0.01128691 -1.16095988
N 1.64894441 -0.91737478 0.82714237
C 0.85677276 -0.24933441 0.11576034
N -1.51890598 0.43269589 0.74500293
H -1.72192611 -0.55953430 0.66330601
H -1.45661281 0.62817729 1.74099187
H 0.00322435 1.77693419 0.15423917
H -0.50069707 -0.79449020 -1.53377690
H 0.63348563 0.58084390 -1.93940177
H 2.14416012 -1.60494068 0.25247515
