12

N -0.22747187 -1.7246524 -0.18335506
C -0.32232824 0.7343723 -0.8984961
C 0.534094 0.36601743 1.0333016
O 0.23649839 1.7942966 -0.16336429
C 0.4260142 -0.45209715 -0.23846595
N 0.1895875 0.81817734 2.0872457
H 0.3610819 -2.448798 0.20842877
H -1.093772 -1.6803904 0.3409311
H -1.4100279 0.62201005 -0.7692806
H 1.4209287 -0.55423903 -0.6811762
H -0.093238555 0.82355565 -1.9660878
H -0.021365896 1.7017475 1.2303187
