10

O 1.2603841 -0.30508992 1.5009665
C -1.4503201 -0.11362068 -0.8864421
C 0.35134536 -0.18583517 0.52250236
C -0.9587805 -0.55592513 0.39390033
N 0.7772284 0.42503595 -0.62184185
N -0.39595416 0.53719205 -1.3853674
H -0.27487594 0.7998928 -2.3495207
H 1.3842582 1.2349001 -0.5621382
H 0.83605707 -0.71949303 2.263595
H -1.5293424 -1.1170568 1.1243458
