10

O 0.25015860 -0.82232599 1.78766580
C -0.77401161 0.84995262 0.24891144
C -0.01472165 -0.22644805 0.61602885
C -0.63895672 1.06036629 -1.17024584
N 0.24263690 0.11757063 -1.51390299
N 0.57106607 -0.78065431 -0.48568423
H -0.18950322 -0.32517799 2.48975336
H 1.52779134 -1.11190819 -0.43204405
H 0.42574707 -0.19596590 -2.45274734
H -1.40020698 1.43459089 0.91226479
