11

O 2.2329822 -0.101425536 0.5888904
C -1.1048162 -0.8766135 1.0857792
O -0.5123875 -1.3973293 -0.50863963
C -0.47334763 1.1553041 -0.64346397
C 1.191799 0.32184118 0.18982866
C -0.2573032 -0.12775312 0.1464477
O 0.9375675 1.4852527 -0.47198635
H -0.3960801 -1.3639419 1.7842565
H -1.1138394 1.893655 -0.15898627
H -0.7168873 1.0294244 -1.6980927
H 0.21231286 -2.0184135 -0.31403342
