9

O -0.85383391 0.62025608 -2.21050656
C 0.53737320 -1.48027042 0.11744566
N -0.23987184 0.72618956 0.03822229
C -0.41270829 0.19532713 -1.18844354
C 0.35179597 -0.22300227 0.94866951
O 0.08197104 -1.16294635 -1.07238984
H -0.28894831 -0.45421152 1.80822629
H -0.50237421 1.67804704 0.22720473
H 1.32659626 0.10061051 1.33157138
