10

N -0.84408057 -0.29031897 -0.6884375
C 0.07095001 -1.0638996 0.025932223
C 0.92790675 -0.18794169 0.62408423
C 0.54234195 1.1393353 0.27137113
C -0.5079022 1.1878531 -0.63671476
H -1.3792768 -0.6421109 -1.4716582
H 1.7422719 -0.4707559 1.2809507
H -0.0067922506 -2.1408882 0.06887196
H -1.5695474 0.43598586 -0.12348107
H 1.0241284 2.0327413 0.64908147
