10

N 0.25934228 0.9315379 0.13969609
C -0.43172258 -1.1717753 0.5611389
C -0.12718235 0.099719435 1.092213
C 0.21760517 0.18016237 -1.1363997
C -0.24182025 -1.2119944 -0.82142997
H -0.7674853 -1.9961536 1.1840206
H -0.17395788 0.43488717 2.1249692
H 1.2118348 0.17003082 -1.5958978
H -0.47091433 0.6716132 -1.8332587
H 0.5243005 1.891972 0.28494838
