10

N -1.0498487 0.2633535 0.36060354
C -0.66025835 -0.9686047 -0.09865948
C 0.6694305 -0.8865701 -0.43724865
C 1.0946069 0.4446426 -0.17053
C 0.01027576 1.1301131 0.321172
H -1.9747874 0.49655646 0.6804405
H -1.3577822 -1.7920978 -0.14444765
H 1.276942 -1.6883863 -0.83296406
H 2.0865319 0.84579146 -0.32380867
H -0.09511032 2.1552017 0.6454425
