11

C -0.59271471 0.38023505 -0.91355212
O -0.48512324 -1.60973214 0.66514911
C -0.42776059 -0.22492172 0.49163323
C 0.93366500 0.49174769 0.46542342
O 0.57966105 1.18874208 -0.73753673
H -0.47067191 -0.35961900 -1.72045104
H -1.11979035 0.19613953 1.22345244
H -1.48614972 0.98265123 -1.11110719
H 1.78140265 -0.19389377 0.31212902
H 0.11746291 -2.02694851 0.03608224
H 1.17001855 1.17559947 1.28877774
