11

C -0.8577774 -0.055212628 0.30714437
O 0.9521483 0.69476473 -0.69704723
C 0.12712683 1.1150672 0.38480443
C 0.6198565 -0.6794132 -0.7315124
O -1.1335517 -0.8549007 1.3164406
H 1.4227076 -1.306858 -0.303965
H -0.2993692 2.1076357 0.20674925
H -0.21861026 -1.1489269 0.3955305
H 0.33479822 -1.0307393 -1.7259673
H -1.6020651 0.06627966 -0.50073427
H 0.6547363 1.0923032 1.3485574
