12

C -0.7650445 1.1766092 0.0021923294
N -0.18291825 -0.15397938 -0.14515685
C 1.0610126 -0.41141564 0.40395007
N 1.703052 0.48648018 1.034181
C -0.8570286 -1.1492727 -0.81987715
O -1.9426972 -1.0230045 -1.3345942
H -1.7375817 1.1569898 -0.48671678
H -0.113211185 1.9200606 -0.46431324
H -0.8676111 1.4199541 1.062419
H 1.4019699 -1.4418962 0.23135422
H 2.5888457 0.11805174 1.3592906
H -0.28878787 -2.0985773 -0.84272915
