12

C -0.63543216 0.94880158 0.77324314
N -0.45399449 -0.95919809 -1.88741727
C 0.13399577 -0.36147161 0.53334878
N 1.57130911 -0.31508220 0.63766451
C -0.55301081 -0.30614459 -0.82390173
O -1.31136915 0.79689595 -0.50846412
H -1.05817290 -0.57567211 -2.61536588
H -0.00624601 1.84283435 0.77876419
H -1.35306249 0.97047673 1.59568555
H 1.96306724 -1.21795178 0.39334151
H 1.94757503 0.36148972 -0.02192539
H -0.24465935 -1.18497806 1.14502655
