12

C -0.7819396 1.3996644 -0.6524754
N 1.1870282 -1.2642224 -0.6014103
C 0.030829256 -0.56253314 -0.46627888
N 0.28322476 -0.35715052 1.9360305
C -0.27041158 -0.05017048 0.8565691
O -1.2094798 1.0745001 0.5962864
H -0.7518944 -0.73196214 -1.1929427
H 1.8135098 -1.2714372 0.19746962
H -1.5973076 1.6353239 -1.344321
H 1.2303475 -2.0550106 -1.2163401
H 0.13272236 1.9624327 -0.81409365
H -0.06662876 0.22056523 2.7015066
