12

N -0.747114 -1.0216784 -1.0308628
C -0.23495278 -0.63553756 0.28065133
C 0.5687722 0.6641075 0.08210334
O -0.16873208 1.5770814 -0.6785974
C 0.89074904 1.258746 1.3930233
N 1.1583314 1.6823485 2.4336195
H -0.04401818 -1.5301834 -1.5592344
H -1.5591567 -1.6156805 -0.94864035
H -1.0900673 -0.41255084 0.93054277
H 0.38549381 -1.3934172 0.7749286
H 1.5285637 0.42119172 -0.40395597
H -0.687869 1.0055726 -1.2735776
