12

N 0.5849295 1.0313948 1.2408386
C -0.559791 -0.96329087 0.35081232
C -0.3601332 0.56763583 0.26111606
O 0.48728994 -1.4030747 -0.48810792
C 0.1743368 0.37885332 -1.146368
N 0.26009133 0.2272665 -2.328307
H -0.42709792 -1.2868221 1.3905597
H -1.5638156 -1.267077 0.009623771
H -1.2553416 1.2001237 0.25688484
H 1.397854 0.42419663 1.2397577
H 0.88322014 1.9825563 1.0621184
H 0.3784576 -0.8917625 -1.8489285
