12

N 0.67584217 1.5697088 -1.0004956
C 0.49113736 0.65058136 -0.15825711
C 0.5665098 0.5915613 1.348675
O 0.08593681 -0.7642326 1.3144984
C 0.0188453 -0.8142324 -0.11836349
N -1.2835966 -1.1534848 -0.59345645
H -1.9565195 -0.4256213 -0.37640315
H 1.5744109 0.6704709 1.769553
H -0.113684766 1.2665197 1.8822306
H -1.2834595 -1.3097649 -1.5942998
H 0.48358953 1.2543004 -1.9524319
H 0.7409886 -1.5358065 -0.52124965
