12

N -0.78745550 -1.35103623 -0.94071935
C 0.30543198 -0.70945933 -0.28410953
C 0.23370107 0.79628593 0.02880662
O 0.32878839 -0.96990986 1.12717161
C 0.30196901 0.42216028 1.49009996
N 0.09665943 1.89081429 -0.58070471
H -0.71714648 -1.26393783 -1.94748715
H -1.67638478 -0.96451398 -0.64050622
H -0.58002145 0.68531670 2.08655330
H 1.24106980 -1.03093336 -0.75920291
H 1.21138563 0.73887565 2.01152342
H 0.04200300 1.75633755 -1.59142472
