10

O -0.7180606 0.33757612 0.5605611
C 0.6465869 -2.0623915 0.47883314
O -1.1614252 2.4346154 -0.21052665
C -1.3851811 1.5327383 0.5373219
C 0.9730551 -1.0038114 -0.4155831
C 0.27039078 0.15578078 -0.34330648
H 1.7468975 -1.0032792 -1.1879714
H -2.1477747 1.510951 1.3255385
H 0.4443765 1.0048288 -0.9999613
H 1.3311352 -2.9070082 0.25509423
