10

O -0.74043560 0.17835327 0.60311087
C 0.20655341 -2.12138754 -0.59821792
O -0.69268150 2.42388358 0.98263083
C 0.85363941 -0.86954253 -0.80148500
C 0.34827822 0.23568889 -0.19593677
C -1.18869320 1.35171757 1.14743044
H 0.77241254 -2.88320978 -1.17395498
H -2.07108850 1.12667540 1.75902151
H 1.74070009 -0.67269475 -1.40958888
H 0.77131514 1.23051686 -0.31301017
