10

O 0.03672284 -2.5510614 0.5174785
C -0.23934415 -1.9929221 -0.5092369
O -0.23685518 -0.66915447 -0.6965748
C 0.1352725 0.095014684 0.46251193
C 0.10368325 1.51234 0.11030637
C 0.08841254 2.6857066 -0.14063476
H -0.53541434 -2.489846 -1.4448698
H -0.5618089 -0.11818969 1.2794033
H 1.1362723 -0.20240766 0.791326
H 0.07305917 3.730521 -0.3697099
