14

C 1.58246244 -1.35984332 0.07802167
N 0.97489842 -0.43309700 -0.86213781
C -0.07598306 0.39281891 -0.51629998
O -0.67352399 -0.04013525 0.60666355
N -0.50839074 1.42215573 -1.13304265
C -1.82002757 0.69306259 1.01560585
H 1.60135386 -0.02562311 -1.53629100
H 2.10785208 -0.85754033 0.90025957
H 0.03048126 1.60053770 -1.97316513
H 2.29464242 -1.98564874 -0.46723703
H 0.81491590 -2.00637589 0.50578543
H -1.56624661 1.73650901 1.21670779
H -2.16785569 0.19781698 1.92266565
H -2.59457860 0.66536266 0.24246423
