14

C 0.019861685 0.31981573 -0.56918293
N -0.09323961 1.3385928 -1.3282505
C -1.4092798 1.3998563 0.9373495
O -0.6022739 0.27384213 0.62093693
N 0.71096075 -0.85154355 -0.80665356
C 1.0466561 -1.7890073 0.25181845
H 1.4702336 -2.687476 -0.20586693
H -1.8329022 1.1817445 1.918156
H 1.385089 -0.77681667 -1.5502468
H 0.14268425 -2.0729291 0.7925006
H -0.8114502 2.3138 0.96790904
H -2.2045503 1.528027 0.19602525
H 0.41063684 1.2065144 -2.1981199
H 1.767574 -1.3844204 0.9736249
