12

N -1.520169 -1.1038013 -1.3450538
C -0.61887276 -0.4523275 -0.55359805
N -0.690412 -0.6977023 0.7673583
C 0.2182228 -0.08858887 1.5153731
C 1.1942049 0.7559929 0.9971216
C 1.1559254 0.9360329 -0.38064933
N 0.2637005 0.34982398 -1.1704208
H -1.6459213 -0.74782485 -2.2796133
H -2.3207946 -1.5020618 -0.883186
H 0.16156942 -0.2821194 2.5865734
H 1.927739 1.2458793 1.6241453
H 1.8748078 1.5866972 -0.87805027
