12

N 1.78144613 1.41826628 0.38512122
C -1.54407714 -0.55800232 -0.87617316
N 0.10683551 -0.11432929 0.94938374
C -0.97994192 -0.99930225 0.50381664
C 0.82654563 0.49126738 0.09897691
C -0.47049487 -0.13386009 -1.49481532
N 0.71669772 0.15942382 -1.32764983
H -2.57200699 -0.27214779 -1.04915754
H -0.64371686 -2.04146975 0.55398709
H -1.81172415 -0.89152161 1.20621544
H 2.07542406 1.44101693 1.35101787
H 2.51501306 1.50065895 -0.30072290
