12

N -0.33483925 -1.0274906 -0.07018682
C 1.0357966 -0.95650256 0.0005209197
N -2.2509553 0.23498063 0.2720971
C -0.9444749 0.12991494 -0.06916775
C 0.92315006 1.4522977 -0.20632562
C 1.6223706 0.31010982 0.34946916
N -0.34137547 1.3181243 -0.49670282
H 2.6071057 0.411943 0.79249835
H -2.7224755 1.0595485 -0.062290713
H 1.5741724 -1.8993362 0.07185642
H -2.7793632 -0.6190459 0.3642332
H 1.6108888 -0.41454345 -0.94600135
