10

N 0.22787386 1.7670231 0.39607754
C -0.20168394 0.47963294 0.16232815
N -1.4023563 0.05035209 0.36015156
O -1.3373139 -1.340487 0.10489234
C -0.08104205 -1.7000333 -0.26064524
O 0.28378958 -2.8111658 -0.5260703
N 0.6431243 -0.5147494 -0.25556073
H 0.75142014 2.1775947 -0.3657877
H -0.53059804 2.369544 0.68436545
H 1.6467865 -0.47771102 -0.2997511
