11

C 0.22585095 -0.29317440 -0.90378431
O -0.68694357 0.68203879 -0.48272112
C 0.11454667 -1.56673136 -0.08106890
C -0.31541072 1.30604290 0.72922737
O 0.99607839 -2.38312356 0.01377658
H -0.87613050 -1.70357796 0.40582576
H -1.08025205 2.05099759 0.95116573
H -0.04003416 -0.54494601 -1.93777391
H 1.26931781 0.05840778 -0.89660053
H -0.26775427 0.58848681 1.56283183
H 0.66073142 1.80557929 0.63912157
