10

N -0.27096522 -1.24481616 -0.64329195
C -0.55834605 -0.73848658 0.69536511
O -0.00743832 1.48800601 1.66157787
C -0.00177671 0.68421347 0.76179242
C 0.33712450 -0.29932120 -1.24343967
N 0.54041546 0.86228078 -0.50283965
H -1.63556619 -0.73721520 0.88748475
H 0.69184714 -0.35468788 -2.26840815
H 0.99461440 1.70669869 -0.80813914
H -0.08990921 -1.36667185 1.45989843
