10

O 0.43279535 -2.6149511 -0.28320596
C -0.55673766 0.6722443 0.4870166
C 0.23985463 -1.4758431 -0.4306533
O -0.48097706 0.0335683 1.7455634
C 0.06876569 -0.17197508 -0.59477603
O 0.31885308 0.37107196 -1.8420366
H 0.44939676 -0.031334992 1.9927717
H -1.620562 0.8320097 0.286135
H 1.2167188 0.72568583 -1.8500764
H -0.06810754 1.6595243 0.48926127
