10

O 0.60667803 -2.57892987 -0.29419242
C 0.32316482 -1.45822020 -0.43619228
C 0.04844977 -0.17175071 -0.59683912
O 0.18940919 0.37704016 -1.85860841
C -0.57686889 0.63422546 0.51384314
O -0.38573240 0.01386758 1.76931504
H 0.55904522 0.01900156 1.96499006
H -0.16235544 1.65441850 0.48433075
H 1.05714562 0.79594934 -1.91799762
H -1.65893587 0.71439822 0.37135098
