11

N 0.03317573 1.67956435 2.45746988
C -0.06089852 0.85305951 -0.04349567
C -0.03791421 1.31802081 1.36277772
C 0.71167639 -0.44420089 -0.14847198
C 0.13355461 -1.62195980 -0.33473830
O -1.40708698 0.75001611 -0.43344462
H 0.46146127 1.62663462 -0.62771369
H -1.41082113 0.43557675 -1.34759933
H 1.79250875 -0.34459589 -0.06447356
H -0.94459839 -1.72457377 -0.41050853
H 0.72894272 -2.52754173 -0.40980219
