11

N -2.5094028 -0.57731116 1.2898117
C 0.015397151 0.18644834 0.9918415
C -1.4122932 -0.2382896 1.1429801
C 0.49438986 -0.6202234 -1.1925865
C 0.29083738 0.6458375 -0.56956226
O 0.90457183 -0.7554126 1.1492198
H 0.6779865 -0.6913707 -2.265656
H 0.13798673 1.1088853 1.5894754
H 1.2529981 1.1216128 -0.33190787
H -0.27744493 1.354385 -1.1883798
H 0.42497322 -1.5345613 -0.6152361
