12

O 0.07375659 -1.8803984 -1.2208244
C 0.81653607 -1.2542077 -0.19883439
C -0.26470846 1.9570457 0.9163303
N -1.4277622 1.5302169 0.45972216
N -1.1126466 0.30714333 -0.001286246
C 0.1935149 0.048166707 0.19763029
N 0.7674594 1.0833182 0.7751557
H 0.80485237 -1.9399712 0.65450794
H -0.15682583 2.9337301 1.3671075
H -1.8081378 -0.28422254 -0.4296923
H 0.2499974 -1.4260904 -2.054264
H 1.863964 -1.0747309 -0.46555248
