11

O 0.17179011 -0.9562935 1.0858972
C 0.04577074 -0.024151105 -0.0030636236
C -0.9512091 1.0361935 0.36412245
C 1.3540106 0.4414213 -0.5922618
O -0.95808405 2.1321776 -0.13338548
C -0.5118436 -1.3365905 -0.45264864
O 2.3819017 -0.1462716 -0.38606596
H -1.5909687 -1.3779812 -0.23849805
H 0.4754155 -1.8162775 0.4775157
H -1.7000408 0.70838803 1.1109803
H 1.2832574 1.339385 -1.2325921
