9

O 1.4714512 1.0115923 -0.2803579
C 0.28418255 0.15389933 0.010435266
N 0.09758815 -0.9851408 -0.6001643
N -0.5227748 0.6286575 0.90253055
N -1.455841 -0.3834339 0.9518712
C -1.0583291 -1.2887723 0.063494675
H -1.6029211 -2.203342 -0.12233568
H 1.3130695 1.7914605 0.29339495
H 1.4735748 1.2750793 -1.2188687
