9

O 0.2581391 0.44176602 -1.7772877
C -0.6294582 -0.11499011 1.4975277
N 0.5195255 -0.87657195 -0.10093655
N 0.15716006 -1.1393707 1.1871209
N -0.83702725 0.82067776 0.5058055
C -0.09499321 0.24026354 -0.38837865
H 0.8476475 -0.54804343 -1.5154566
H -1.0813005 -0.02233734 2.475525
H 0.86030704 1.1986059 -1.8839196
