9

O 0.8160338 -1.674828 -0.7648652
C 0.26904765 -0.5620231 -0.24810196
N -0.3101406 -0.5146691 0.93960404
N -0.69141793 0.75689113 1.02224
N -0.40884897 1.52632 -0.0041211494
C 0.21439943 0.7066068 -0.84837043
H 0.69998676 -2.387195 -0.123325326
H -1.1713603 1.1097519 1.8336335
H 0.58230007 1.0391457 -1.8066934
