10

O 0.65677357 1.69243155 0.46374582
C 0.60671907 -1.35934696 0.08903979
C 0.17409263 0.51564582 0.01764648
N 1.15371035 -0.42163056 -0.59446148
N -1.62638695 -0.55568078 0.12273163
C -1.23406066 0.48111410 -0.51746182
N -0.33373275 -0.64369166 0.87847632
H 0.81283853 -2.42563749 0.08625043
H 1.60629201 1.60036235 0.63019649
H -1.81624566 1.11643361 -1.17616370
