10

O 1.4478796 -1.2741307 0.86638075
C 0.54640293 -0.45685953 0.3207581
C 0.8849218 0.893082 0.084794864
N 0.007944507 1.7135894 -0.45362386
N -1.2057636 1.2614831 -0.77659595
C -1.4673768 -0.01176321 -0.532089
N -0.6410233 -0.9182196 0.011228237
H 1.0282507 -2.1466565 0.94835955
H 1.8607935 1.2960669 0.33374718
H -2.4620292 -0.35659188 -0.8029599
