9

O -0.5251092 1.4710681 1.1569103
C -0.25165564 0.16988756 0.8458786
C 0.50841707 -0.9793314 -1.513329
C 1.4771281 -0.9033254 -0.5540922
C 1.0336733 -0.29374617 0.45844296
N -0.60970217 -0.7465958 -1.8382837
H -0.007210955 2.0563242 0.58952224
H -0.8081997 -0.28005424 -0.6463718
H -0.8173411 -0.4942269 1.5013227
