9

O -0.8027008 0.81516635 -2.5673625
C -0.29057026 0.46608004 -0.26383862
C 0.29335463 -0.14318213 0.68633235
C -0.89860755 1.0937157 -1.2490675
C 0.8530638 -0.7791668 1.6540244
N 1.4759964 -1.2936356 2.5758748
H -0.18709512 0.08201727 -2.7065978
H 1.1156214 -2.1754198 2.933895
H -1.5590625 1.934425 -1.0632603
