10

C 0.45921797 0.49984866 1.6219277
O 0.9174276 -0.6865461 0.9264967
C -0.78221667 -0.29642588 -2.002148
O -0.33295166 -0.05435179 -0.7223346
C 0.5493403 -1.0080049 -0.27383325
O -1.5621467 0.43464607 -2.526824
H 0.9607426 0.45656782 2.5871367
H -0.62562656 0.46951348 1.7450378
H 0.75223434 1.3955154 1.0694804
H -0.3360213 -1.2107627 -2.4249396
