10

C -0.99265623 0.38425294 -1.3096838
O -0.53892833 -0.3937383 -0.19180533
C 0.525236 0.09587477 0.4330513
O 1.1194394 1.1040708 0.14110981
C 0.963677 -0.76457286 1.6123581
O 0.40770867 -1.7746589 1.9445429
H -1.8518263 -0.15605655 -1.7044077
H -1.2809942 1.3864665 -0.9829678
H -0.2040625 0.46380273 -2.063212
H 1.8524067 -0.3454412 2.1210146
