11

N 1.15762938 -0.89675954 -0.82484028
C 0.63467344 -0.68386468 -2.06536917
C 0.66208613 -0.47679300 0.36474162
N -1.13822685 0.79090356 1.40859670
C -0.46809034 0.28786679 0.30207715
N -1.04456195 0.53897750 -0.90562880
N -0.55277720 0.06742284 -2.00608395
H 2.01262610 -1.44053811 -0.81015057
H -1.87313209 1.42927627 1.13348346
H 1.15147613 -0.79576121 1.27830994
H -0.54170282 1.17926946 2.12486402
