11

N 0.9880127 -0.8486691 -1.5287527
C 0.24943018 -0.22239065 -0.55487734
C 0.5893358 -0.2772022 0.81334186
N -0.11922277 0.38302755 1.7041738
C -1.1509058 1.0886241 1.209507
N -1.5051124 1.1582205 -0.0635269
N -0.79779077 0.48634353 -0.9613375
H 1.5261396 -1.6607337 -1.269433
H 0.538319 -0.9015984 -2.4296453
H 1.4369895 -0.85951525 1.1682172
H -1.7551951 1.6538935 1.912333
