11

N -0.703147 0.24082075 1.5162396
C -0.10256816 0.12242534 0.20210539
C 0.6696484 -1.0031545 -1.4074138
C 0.07215395 -1.186533 -0.12056616
N 0.321437 0.998755 -0.7421359
N 0.81555307 0.2795106 -1.7670912
H -0.64242697 -0.95041823 1.4243298
H -1.6532633 0.60698736 1.554321
H 1.0121565 -1.7494153 -2.1152036
H -0.12162017 0.63659644 2.2536037
H 0.3320768 2.0044255 -0.79818857
