10

O 1.7526261 -1.1249974 1.0121202
C 0.802127 -0.61035436 0.50152165
C 0.5053068 -0.08624538 -0.9303403
C -0.72139263 0.58203334 -0.3083288
O -1.5226083 -0.4665014 0.196814
C -0.47214445 0.024630932 1.0344805
H 0.29265672 -0.82139724 -1.7091529
H 1.2943082 0.5972428 -1.259011
H -1.1958895 1.5214702 -0.5606613
H -0.73499006 0.38411856 2.0225577
