10

O 1.4588213 0.7013004 -1.2387407
C 0.63030505 -0.9163374 0.14998302
C -0.8483723 0.74910367 -0.25616828
C -0.51628256 -0.20780548 0.87958544
O -1.7128236 -0.30327123 0.14167978
C 0.39839664 0.180468 -0.76184386
H 1.8905089 -0.1402552 -0.47620037
H 0.4704784 -1.960091 -0.11157861
H -0.57286096 0.12463225 1.910219
H -1.1981711 1.7722559 -0.23693545
