10

O 0.89094963 -1.40174999 -0.33277252
C 0.32046677 0.48890909 1.04973274
C 1.25793786 -0.05629019 -0.01098677
C 0.11991404 -0.31846517 -0.88322221
O -2.05562633 0.33098418 0.42494190
C -0.73113808 0.24460834 0.25019795
H 0.05176529 -0.22894528 -1.96318803
H 2.24801728 0.27797822 -0.30046469
H -2.51576013 -0.02780383 -0.34341825
H 0.41347355 0.69077468 2.10917964
