10

O -0.37708598 1.6418052 -1.2172129
C -0.17016385 0.6078011 -0.35602897
C 0.51482636 -0.57393396 -0.5355206
N 0.40686157 -1.2374054 0.6507609
N -0.28852832 -0.5696534 1.5678594
C -0.64876205 0.55817497 0.97078013
H -0.035913445 1.4001673 -2.0851376
H 1.0515803 -0.98390716 -1.3780975
H 0.7839887 -2.1396124 0.88394713
H -1.2368034 1.2965639 1.49865
