9

O -0.08228332 -1.868416 0.21390577
C 0.2500254 0.15282156 -0.5021683
N 0.4656278 -1.0386069 -0.89710355
O 0.57902646 1.240448 -1.1905715
C -0.58820367 -1.2095915 1.2022735
C -0.41980457 0.23773101 0.8310427
H 0.9997921 0.967239 -2.0205343
H -1.38895 0.7482836 0.7884531
H 0.18477003 0.7700914 1.5747024
