9

O 0.32441402 1.23756398 -1.28632583
C -0.34337310 -1.20991478 1.29335148
N 0.84330351 -0.93161377 -0.72197174
O 0.43853062 -1.77767564 0.43710964
C -0.56063358 0.17892231 0.75964517
C 0.24951799 0.17218381 -0.49611850
H -1.62497234 0.36863314 0.57822440
H -0.22289375 0.93654143 1.47650838
H 0.89610630 1.02535952 -2.04042286
