11

N -1.48904901 -0.31639554 -0.95395557
C -1.76729158 -0.14279289 -2.08090513
C 1.25472275 1.20390097 0.57461137
O 0.25963084 -0.96900628 0.45301229
C -1.06094312 -0.51077444 0.39473265
C 1.20864023 -0.10284094 -0.11555070
N 1.25913745 2.21507291 1.12759022
H -1.18296424 0.43841619 0.93186133
H 1.01204164 0.06757926 -1.18254333
H 2.17632177 -0.59904273 -0.01047273
H -1.67024674 -1.28411660 0.86161970
