11

N -0.7152364 -2.4523594 0.09015796
C 0.25014982 -0.94508773 0.6615195
C -0.10825677 1.8586817 0.098862074
O 0.9501643 -0.26325065 -0.288173
C 0.2829137 0.83769614 -0.8890004
C -1.3209249 -1.4362239 -0.08423477
N -0.40680695 2.6386995 0.89628243
H -0.61670506 0.49091786 -1.4128976
H 0.99239784 1.2641231 -1.6020023
H 0.9162247 -1.6748635 1.1091542
H -0.2239201 -0.31833312 1.4203318
