11

N -2.002705 -0.5226271 -1.9119843
C -1.5780816 0.027043408 -0.98941314
C -0.99732345 0.6960141 0.19334148
O -0.3124906 -0.2076384 1.024957
C 0.8041403 -0.82222414 0.43523407
C 1.8556741 0.15707146 0.083241105
N 2.6480002 0.9484595 -0.19881277
H -1.7993101 1.1175667 0.80006605
H -0.3439498 1.5116225 -0.14500564
H 1.1951404 -1.5211715 1.1769
H 0.53090554 -1.3841166 -0.46852374
