13

C 0.19270762 -1.87858805 -0.40143630
C -0.11523187 -0.46024725 -0.03943931
O -1.42771391 -0.19722751 0.41591526
C 0.80530490 0.52830167 -0.07617760
O 1.97403486 0.72334169 -0.33887922
N 0.03885358 1.92863027 0.48110215
H 1.24916061 -1.97208974 -0.66636623
H -0.39939711 -2.21876912 -1.26520736
H -0.01824278 -2.56122942 0.43240819
H 0.13913277 2.63678216 -0.24106925
H -2.03751439 -0.44643513 -0.29457869
H -0.93516115 1.68741162 0.67792460
H 0.53406683 2.23011844 1.31580364
