13

C -1.7445223 -0.29385418 0.33256456
C -0.35180828 -0.13640368 -0.20677622
O 0.84748614 0.25023264 1.8901234
C 0.71737325 0.19151011 0.6959157
O -0.2709264 0.50693685 -1.4732579
N 1.9280593 -0.12753503 -0.18995535
H 2.709486 -0.4864586 0.34892476
H -0.6822641 1.3762517 -1.3853493
H -2.256466 0.6760206 0.4335399
H -1.7255057 -0.7647049 1.3204544
H 0.9819527 -0.8653641 -0.5660647
H -2.3427982 -0.91488147 -0.34155098
H 2.1899338 0.58825016 -0.85856825
