11

N -0.20645220 -0.68422503 -0.88615105
C -1.04572182 0.09907826 -0.20512909
C 0.41673061 -0.79786282 0.47330574
N 1.73633689 -0.36278186 0.51204569
C 2.78114806 0.16877800 0.64374263
N -2.17889946 0.69133607 -0.67092781
N -0.55073177 0.17557913 1.03538333
H 0.35436817 -1.80715097 0.89492535
H -2.31499643 0.73295298 -1.66928633
H 3.60137828 0.37444770 -0.02893724
H -2.59316045 1.40984839 -0.09897117
