11

O 1.5844364 1.7524707 0.07767948
C 0.56629634 -0.36917716 0.894185
C -0.5570713 0.667919 -0.7055539
N 0.2546939 -1.5120134 0.0356107
C 0.7862743 0.85960126 0.050977726
C -0.77556956 -0.52912855 0.22549233
H -1.703287 -0.82308745 0.7014082
H 0.6887098 -1.4606633 -0.88254297
H -1.2068665 1.5300545 -0.53146267
H -0.52899134 0.4437315 -1.7757038
H 0.8913748 -0.55970716 1.9099098
