11

C -0.85196304 -1.0016131 -0.3386117
C 0.5807189 1.0674506 -0.56478304
C 0.5692138 -0.7040776 1.1961274
O -1.3267717 0.80924964 0.9047158
C -0.35720223 0.20979244 0.30701682
N 1.2047603 -1.3706125 1.8996769
H 1.3541119 0.46808493 -1.0565993
H 1.052089 1.811448 0.08145487
H -0.03138373 1.5823939 -1.3086157
H -0.4991371 -1.4060725 -1.2880412
H -1.694436 -1.4660437 0.16765884
