11

O 1.6240854 -1.9307542 0.32523546
C -1.269402 0.02811294 -0.88145924
C 0.024752084 -0.33228365 -0.31739858
C 0.7527736 -1.6109343 -0.45071867
N 0.3303056 0.55009276 0.71870744
C -0.69440776 1.4267226 0.74340713
N -1.5977392 1.2099622 -0.17938006
H -0.00942454 0.1756591 -1.449359
H -0.7208292 2.2400582 1.4613838
H 1.1312863 0.48383585 1.3276511
H 0.42859963 -2.2404716 -1.2980695
