11

O 0.71700613 -1.19607701 -1.83518744
C 0.99165126 -0.11045351 -1.38916589
C 0.16446656 0.56915501 -0.32318402
C 0.95637403 0.87902816 0.95574937
N 0.24927019 0.26866124 1.95521626
C -0.78749131 -0.38448543 1.41963447
N -0.93819909 -0.25825114 0.11175036
H 1.85866055 0.47705365 -1.73549218
H -0.18505682 1.54239294 -0.69946806
H -1.47671891 -0.97947432 2.01258607
H -1.54996277 -0.80754989 -0.47243930
