9

O 2.435812 0.32618636 -0.38778165
C 0.07707951 0.440743 0.0056641162
C -1.9211608 -0.7627642 0.07771217
O -2.3754997 -0.8432758 1.1842223
C 1.3283912 0.7115875 0.30259076
N -1.0906278 0.2845331 -0.3693204
H 2.1809204 0.017653557 -1.2677284
H 1.5495993 1.2756523 1.2011011
H -2.1845145 -1.4503156 -0.74645996
