12

O 0.37517958 -1.25623634 2.05889638
C -0.43970528 -0.84076882 1.00811860
C 0.28744527 0.09935133 0.07031077
O 1.40589758 0.49000023 0.34504588
C -0.37794595 0.55322480 -1.21158896
O 0.37323742 1.52439899 -1.86783299
H -0.80465211 -1.70813888 0.43774638
H 1.19773984 -0.74870128 1.98446717
H -1.32974597 -0.30612706 1.37884748
H 1.20963447 1.59838352 -1.38299667
H -0.51401583 -0.34136081 -1.84117853
H -1.38306904 0.93597426 -0.97983528
