12

C -0.7665155 1.1742325 0.0027016038
N -0.18359318 -0.15437864 -0.141873
C 1.0647426 -0.4152221 0.402951
N 1.7011353 0.48735943 1.0275272
C -0.85494876 -1.1467782 -0.81614655
O -1.9392194 -1.021321 -1.3304434
H -1.7385399 1.1558828 -0.48901245
H -0.11294933 1.9181621 -0.45985612
H -0.87282926 1.4184812 1.0629447
H 1.4013044 -1.4462199 0.22828574
H 2.5901783 0.12651493 1.3533736
H -0.28876525 -2.096713 -0.8404525
