9

O -0.5155908 -0.68330026 -1.0288751
C 0.8152217 -0.2622753 0.72493273
N -0.023275193 0.82729703 0.5218843
C -0.7695656 0.5112544 -0.5167614
C 0.51278335 -1.1797974 -0.21932413
O -1.5923626 1.4298779 -0.8117151
H 1.552654 -0.31016982 1.51115
H -0.8579899 1.8302544 0.2816926
H 0.8781247 -2.1631413 -0.462984
