13

C -0.5512064 0.024538675 1.7060884
C 0.026497507 0.1688488 0.33031163
N 1.1369838 0.79040843 0.23200132
O 1.5593642 0.8797556 -1.1064976
C -0.7152214 -0.41331252 -0.8571175
O 0.063626334 -1.3160504 -1.6074731
H 0.08021633 0.5288764 2.439905
H -1.5602494 0.4509255 1.7464412
H -0.63566726 -1.0350668 1.9697104
H 2.4175656 1.3075591 -1.0208797
H -1.097329 0.41572818 -1.4735252
H -1.5813364 -0.979011 -0.4956699
H 0.85675603 -0.8232003 -1.863295
