11

N -0.8525464 -0.77705544 0.4050048
C -1.1890595 0.6847391 -1.0688125
N -1.7952248 -0.3004793 -0.4348127
N 1.4009207 -0.437241 1.1525578
C 0.15219308 0.849455 -0.65456325
C 0.3287952 -0.118596494 0.31168896
H 1.7117755 -1.3979123 1.0593617
H 0.8829777 1.561961 -1.008761
H 2.1847048 0.1821477 0.99115336
H -1.7283196 1.2502221 -1.8172827
H -1.0962166 -1.4972402 1.0644655
