10

O 2.0466206 0.14313152 -0.9129329
C 1.3229252 0.4676962 -0.0065910122
C -0.19796021 0.4370549 -0.12734498
O -0.81341517 0.95106083 1.0073844
C -0.6180236 -1.0029427 -0.37061858
O -1.4301895 -1.5321078 0.3497481
H -0.46022508 1.0046914 -1.0355717
H -1.4092307 0.25393337 1.3302054
H -0.13492312 -1.517898 -1.21883
H 1.6944216 0.7953802 0.9845511
