11

O -0.32972836 -2.35302564 -0.02844754
C -0.13073972 -1.03156056 0.12071867
C 0.22653358 0.91031622 1.03807424
C -0.10705323 -0.07051955 -1.00285969
C 0.11212899 1.12419669 -0.44593611
N 0.05238337 -0.51191155 1.27337557
H -0.44059638 -2.55211676 -0.96713360
H -0.53408986 1.47818676 1.59013440
H -0.24379986 -0.31045960 -2.04997047
H 0.19401964 2.07879579 -0.94999107
H 1.20094163 1.23809886 1.42203599
