11

C 0.68562555 -0.88109136 -1.0482098
N 0.14058273 -0.41318965 2.191829
C -0.5388321 1.4419777 0.76596385
C -0.2124821 0.10328129 1.1470164
N -0.42357475 -0.3724159 -0.25434315
H 0.23851743 2.1145453 0.4128538
H 0.84468013 -1.9510046 -0.87256104
H -1.3100126 -0.8441977 -0.40421802
H -1.5280406 1.8699449 0.92537266
H 0.50778884 -0.7153008 -2.1159377
H 1.5957476 -0.35254917 -0.74776584
