11

C 1.3800542 0.006404828 0.02339531
N 0.24112996 -0.6242402 -0.63007164
C -0.99657977 -0.49987692 0.11068694
C -1.4276477 0.90223014 0.33553717
N -1.7106483 2.014359 0.4630259
H 1.2486176 1.082906 0.21122828
H 2.2668395 -0.13756931 -0.6001509
H 1.5619322 -0.4906884 0.9828447
H 0.115608566 -0.24009289 -1.5592145
H -1.7943292 -1.0266949 -0.42387298
H -0.88497704 -0.986737 1.0865921
