10

O 0.82185876 0.9328111 -1.7111299
C -0.01898896 0.81195277 -0.6044728
C 0.20716944 -0.48973003 0.122745536
O 1.0222006 -1.3043752 -0.2561839
C -0.61577207 -0.7836838 1.3641622
O -1.4377192 -0.0185636 1.7945716
H 1.3489087 0.12302778 -1.753524
H 0.1366814 1.6336507 0.1125769
H -1.0789846 0.858605 -0.89761996
H -0.38535374 -1.7636949 1.8288738
