10

O -1.206881 0.34756178 1.9964496
C 0.3749905 -0.24965636 -1.6964968
C 0.8408662 0.021378456 0.74454224
O -1.3114058 0.27339607 -0.15558916
C -0.09014579 0.08591121 -0.2852124
O 1.4513221 0.074592344 -2.11914
H -2.0845916 0.5658566 1.6471158
H 1.889486 0.22580229 0.5568829
H -0.3903435 -0.782673 -2.2901797
H 0.52670294 -0.5621693 1.6016278
