10

O 1.3688431 -1.5638913 -0.60795754
C -0.08994241 0.032765076 0.13264894
C 0.6261234 1.0199912 -0.39115953
O -1.7974476 1.3606176 1.09936
C -1.3297839 0.2641667 0.9240018
O 0.14425936 -1.3156267 0.06364842
H 1.0509363 -2.0201654 -1.4002346
H -1.7911136 -0.64893985 1.3560194
H 1.5437737 0.8386568 -0.9384973
H 0.27435195 2.0324259 -0.23782963
