10

C -0.96319046 0.04786589 -0.47607773
C -0.08724897 -0.73130192 -1.12063173
N 1.08612013 0.06890736 0.71369308
C 1.16635625 -0.67897937 -0.33422074
N -0.75642937 1.36150056 1.56622035
C -0.24984268 0.58020887 0.70471161
H -1.99213772 0.27847668 -0.71725698
H -0.22884451 -1.30045354 -2.02917473
H 2.08118447 -1.20493967 -0.58440066
H -0.05596720 1.57871474 2.27713763
