10

C -0.08764526 -0.021090822 0.9421017
C -0.33435905 0.106995985 -1.2942126
N 1.2203742 -0.21652828 0.396945
C -1.0474135 0.18029453 -0.16460803
N -0.3913688 -0.022149587 2.1737652
C 1.0659246 -0.1411129 -0.8814734
H 0.45136353 -0.18159992 2.7283916
H -0.6746659 0.20120195 -2.3163426
H -2.1068668 0.34800938 -0.024923844
H 1.9046572 -0.25402042 -1.5596433
