11

N 0.80929027 -0.76074277 0.02690168
C -0.67768696 0.66616215 1.09499214
C 0.42586933 -0.32238051 1.35438609
N -0.04910381 -0.25853480 -2.11011899
C 0.01468439 -0.12196005 -0.75291874
N -0.92003520 0.78003955 -0.15525639
H -1.23061724 1.23019603 1.84148413
H 1.26998443 0.13279182 1.88586316
H 0.07525881 -1.16355482 1.96677861
H 0.75160613 -0.69087470 -2.54332499
H -0.46924994 0.50885795 -2.60878727
