11

O -0.04636804 -1.4219 0.85846573
C 0.14133942 -0.65636533 -0.30031562
C -0.17496961 0.81361854 -0.024395853
O -1.4994645 0.8132138 0.47215372
C 1.539026 -0.7995488 -0.7480552
N 2.6291819 -0.8694342 -1.1250992
H -1.6563147 1.6237388 0.96802753
H -0.876433 -1.0967724 1.2373478
H -0.50324386 -1.0038128 -1.1226497
H -0.08410877 1.4054322 -0.943394
H 0.53135526 1.19183 0.72791463
