11

O -1.639695 0.8627906 0.21760818
C -0.31033218 -1.1433376 0.27805558
C -0.73467046 0.08742209 -0.494077
O 1.030469 0.17550063 0.90852433
C 0.720611 0.61515826 -0.388534
N 0.19301197 -2.1654081 0.61916745
H -1.1736512 1.1472253 1.0217043
H -1.1685945 -0.15592276 -1.4674995
H 0.71234524 1.7126484 -0.46914867
H 1.3678353 0.20160192 -1.177492
H 1.0026708 -1.3376784 0.9516913
