9

O 0.50761159 -1.38991269 -1.12894377
C 0.40727197 0.80648261 0.00584248
N -1.24502885 -0.89201202 0.25679902
N -0.16957537 1.62612154 0.79314753
N -2.23725043 -1.21081511 0.70574610
C -0.10466265 -0.52541797 -0.25352587
H 1.16420030 -1.91682006 -0.65482560
H 0.34787823 2.50150785 0.83155108
H 1.32955531 1.00086608 -0.55579079
