11

O -0.970656 0.46408424 -0.91966057
C -0.45666966 0.6985015 0.63403994
C -0.057093192 -0.7303528 0.88946635
N 0.7615483 -0.8972307 -0.32544866
C 0.5416562 0.334267 -0.93633264
O 1.1517502 0.9975769 -1.7232492
H -1.0917963 1.3512164 -1.3050753
H -0.84262365 -1.494684 0.93798256
H 1.7478089 -1.0712801 -0.18753958
H -1.3314289 1.1211413 1.1360223
H 0.54750353 -0.7732397 1.7997948
