11

O 1.3676889 1.1990694 -0.42458457
C 0.6965987 0.21659012 0.30980888
C -0.7944131 0.5262785 0.58469766
N -1.1134944 -0.7126931 -0.12784652
C 0.16518621 -0.9726962 -0.5215742
O 0.6674415 -1.7721415 -1.2724205
H 1.9764433 0.74538064 -1.0219575
H 1.2517948 -0.095110044 1.2045882
H -1.0991439 0.5289401 1.6323202
H -1.1266242 1.4346786 0.075937696
H -1.9914776 -1.0982966 -0.4389692
