11

O 0.40006343 1.9863597 1.1215569
C 0.72071034 -1.3444153 -0.051828787
C 0.28500423 0.81115794 0.5170248
N -0.9024542 0.31218696 0.18039942
C -0.6397901 -0.8977103 -0.6310379
O 1.2707173 0.07852176 0.29030105
H -0.6780843 -0.6108848 -1.7075676
H 1.314662 2.0647717 1.43083
H 1.3880326 -1.6166189 -0.886339
H -1.7453706 0.8626203 0.17419663
H -1.4134905 -1.645989 -0.43753573
