11

C -0.97884457 0.15867065 0.39378771
C 0.27412292 -0.03034387 -0.13111588
C 0.89544952 0.53862875 -1.36480706
N 0.94983671 -0.88790504 0.69092058
N -0.97797239 -0.60546840 1.51318554
N 0.19075129 -1.23000541 1.67820320
H -1.82871002 0.74389228 0.07996121
H 1.85356660 1.00870035 -1.12949522
H -1.70679014 -0.74442934 2.19400105
H 1.08373938 -0.24387746 -2.10621675
H 0.24485048 1.29213731 -1.81842446
