9

N -0.02360468 -0.94044444 0.32728724
C 0.50645550 1.28362870 0.57309511
C 0.02767707 0.98750310 -0.76109045
N 0.37919433 0.09383355 1.16433058
C -0.31032614 -0.33510428 -0.85684524
H -0.53631250 -1.72304225 0.70827165
H 0.70702059 -0.15459035 2.08459150
H -0.03750760 1.70927782 -1.56544572
H -0.71259665 -0.92106248 -1.67419480
