9

N -0.5627279 -0.20305568 0.79637647
C 1.4661429 -0.07465008 -0.2783709
C 0.36085945 0.16880892 -1.1817238
N 0.82465214 -0.22072232 0.88288695
C -0.82422453 0.11927259 -0.4992082
H -1.8492048 0.26152343 -0.8192223
H 0.46327823 0.34913218 -2.2443569
H -1.1103449 0.11035413 1.5852793
H 1.2315694 -0.5106631 1.7583396
