11

O -0.30314079 -0.18207629 -1.76892144
C -0.00816179 0.26709524 -0.68769013
C 0.45750996 -0.70770610 0.39077805
C -0.36200499 -1.98024182 0.60270288
O 1.44983999 -0.51776316 1.05250008
C 0.02060580 1.72424555 -0.32771906
O -1.52499889 -2.04692141 0.30510552
H -0.20421463 2.31859438 -1.21517539
H 0.19665588 -2.78442929 1.11662729
H 1.00192714 1.98486967 0.07880771
H -0.72401775 1.92433331 0.45298464
