11

C -0.074579895 0.7621079 1.609665
C 0.48751822 0.9222365 0.25083777
O 1.5803063 0.12489797 -0.05963791
C -0.24096242 0.21232674 -0.83888376
C -0.59994423 -1.1091248 -0.5693889
N -0.5185213 0.6215241 2.6689434
H -1.0580649 -1.3256706 0.39843288
H 0.6830501 -1.0133694 -0.2834766
H -0.83983433 -1.7738523 -1.392386
H -0.079466596 0.5916546 -1.8442951
H 0.6604992 1.987269 0.060189273
