10

O 0.74105746 0.44785842 2.2035077
C 0.3182282 0.16578786 1.1087927
N -0.058024656 1.02568 0.08081169
C -0.45479953 -1.1052151 -0.7149828
C -0.4635546 0.28009647 -1.0155693
N 0.09512674 -1.0943052 0.55508983
H 0.3079777 -1.9284925 1.0766323
H 0.39176613 -0.5501082 -1.5664518
H 0.052753594 2.0222886 0.14993933
H -0.93053097 0.7364094 -1.8777694
