10

O -1.6320369 1.6220477 -0.5484032
C 0.5229297 -0.40794232 1.3162988
N -0.04166933 -0.042561363 -0.9577297
C 0.81217676 -0.8487725 -0.10504317
C -0.8035289 0.8076793 -0.23022862
N -0.39665744 0.5246614 1.1269698
H -0.8298848 1.041874 1.8813431
H 1.8765943 -0.69816303 -0.32077092
H -0.11150112 -0.077600166 -1.9589863
H 0.60357773 -1.9212228 -0.20344995
