10

O -0.54963341 1.58940568 -1.66343673
C 0.47943169 -0.93199096 0.54094186
N -0.82223324 0.84873076 0.55340422
C -0.44872272 -0.09673714 1.40064445
C -0.29109568 0.80187282 -0.78947638
N 0.50510975 -0.29260289 -0.76160464
H 1.47125338 -0.96592216 1.00714436
H -1.46153928 1.59464246 0.79666832
H 1.01507215 -0.58648831 -1.57535442
H 0.10235760 -1.96091027 0.49106918
