12

O 0.87010866 1.9676459 -1.2814437
N 1.0129813 1.4100826 -0.0052698017
C 0.31314555 0.36408344 0.10433431
C 0.13289839 -0.60862666 1.2428981
N -0.56254077 -1.5120728 0.29649323
C -0.5843057 -0.480192 -0.7712442
H 1.4658747 2.7249153 -1.2413018
H -0.49409387 -0.22022796 2.0561006
H 1.0500593 -1.0263646 1.6678505
H -1.484226 -1.7919564 0.6092926
H -1.5623022 -0.017216342 -0.9548766
H -0.15759905 -0.81007075 -1.7228333
