13

C 0.21406429 -0.5036111 1.4012554
C -0.7054498 -0.41252264 -0.97494155
N -0.6515879 1.6506766 0.48696995
O 0.37013552 -1.1267145 -1.5403738
C -0.31393853 0.35245755 0.2837403
O 0.53945476 1.6079751 -0.55385894
H -0.62350154 -0.62797374 2.1002204
H -1.1784954 0.28803986 -1.6732241
H 1.0083649 0.015755905 1.9472134
H 1.2507627 1.8721273 0.041454
H 0.9784906 -0.4729582 -1.9011812
H -1.4473925 -1.1615847 -0.6745481
H 0.5590931 -1.4816673 1.0572741
