12

N 0.85841876 -1.7409723 0.5630174
C 0.2668132 -0.5435209 0.1691096
C 0.9298426 0.39384887 -0.6249275
N 0.34799165 1.5103724 -1.0619422
C -0.91890675 1.6969846 -0.6980702
N -1.6528217 0.88104725 0.05803702
C -1.0562239 -0.22673987 0.48592675
H 1.8667837 -1.7363123 0.60292333
H 0.44673303 -2.1772025 1.3749726
H 1.9655416 0.23548895 -0.9208855
H -1.4014021 2.6038034 -1.0528635
H -1.6527698 -0.8967982 1.1047025
