12

N 0.44614281 -0.89861055 1.07241960
C -0.07057851 -0.29892381 -0.11459974
C 0.11685859 -0.06044355 1.99174617
N 0.75025938 -0.40028280 -1.35128553
C -0.56933434 1.02236543 0.30264591
N -0.53337483 1.13000699 1.59309217
C -0.62640987 -1.08639521 -1.26846821
H 1.55077443 -1.01201703 -1.26543153
H 0.32577550 -0.21853088 3.04415671
H 0.93891764 0.47517665 -1.83463418
H -1.02709063 1.77335386 -0.33762699
H -1.30193989 -0.42569971 -1.83201407
