10

N 0.27685639 0.38181800 0.20273101
C -0.52678333 1.35642531 0.06150030
O -0.21730507 2.57828053 0.48006820
N 0.72702575 -1.83435262 -0.11274555
C -0.20738226 -0.86108954 -0.28909025
O -1.29172146 -1.04993881 -0.80057492
H 1.58594006 -1.62679136 0.36751816
H 0.67147492 2.52605393 0.86795945
H 0.49474156 -2.77385600 -0.38072665
H -1.51284661 1.30345047 -0.39663967
