10

N 1.7040002 -0.30062455 0.69489557
C 0.82516885 -0.033975847 -0.30461252
O -2.5819497 0.20283507 0.12848891
N -0.50330615 0.01475944 0.16062154
C -1.546697 0.2243864 -0.60706735
O 1.1332171 0.13324712 -1.4665835
H 2.6843717 -0.27966344 0.46809527
H 1.4115033 -0.33155587 1.6564151
H -1.5493063 0.3889741 -1.6830317
H -1.5770018 -0.0183825 0.9527785
