10

N -0.65472275 -0.9898549 1.5803964
C 0.478783 0.71007717 -1.1780195
O -1.8281333 0.25122884 0.081539035
N 0.49777132 -0.0023166998 -0.12550977
C -0.7740954 -0.20174924 0.47762877
O 1.5911309 0.99020386 -1.8474351
H 0.2542744 -1.2895905 1.8891867
H 2.320549 0.5570298 -1.3747549
H -0.40858838 1.1505862 -1.6291771
H -1.4769685 -1.1756147 2.1261451
