12

N 1.2856753 1.136098 0.18410698
C 0.12319511 0.50947744 -0.39245155
C 0.30399793 -0.888671 -1.0116103
O -0.7819032 -1.403622 -0.19288778
C -0.8932121 -0.20994471 0.47987115
N -1.5669854 0.105716825 1.4896675
H -2.1224835 -0.68385583 1.8236306
H 1.6471807 0.56869966 0.9462533
H 1.0341805 2.0335486 0.5811263
H -0.3604763 1.2087988 -1.0797147
H 0.08301653 -1.0013607 -2.074575
H 1.2478143 -1.374885 -0.7534164
