10

N -1.4547727 -0.66754776 -0.6825163
C 1.1434196 -0.50772274 -0.78634024
C -0.1502035 -0.37517583 -0.6158674
N 0.5463972 0.796961 -0.17752598
C 0.564298 0.9962694 1.197703
O -0.4060747 0.8648368 1.9056685
H 1.9374049 -0.6035836 -1.5048953
H -2.0084512 -0.27527672 0.06896915
H -1.7074995 -1.5998955 -0.9736576
H 1.5354817 1.3711352 1.5684621
