10

N -0.56300905 0.62581880 -0.50654101
C -0.55494167 1.42984931 0.62693545
C 0.20915689 -0.57642208 -0.40816866
N 0.00049278 -1.72160329 0.25277272
C 0.77414367 0.27756428 -1.22767317
O -0.68733451 1.00445702 1.75015688
H -0.45950031 -1.60819446 1.14759763
H -0.50138681 2.50844815 0.39254073
H 0.73093375 -2.41676988 0.21951901
H 1.05144524 0.47685192 -2.24713950
