9

N -0.9594189 0.11971907 0.658461
C 0.19793707 0.43851778 -1.4768164
C 0.06396167 -0.37080806 -0.27059633
C 0.21207865 0.13399228 1.4860853
N 0.28552264 1.0756971 -2.4357421
H 0.30184254 -0.9200787 1.8302768
H -1.1768949 1.0851821 0.40849882
H -0.0186999 -1.4360273 -0.47567773
H 1.0936711 -0.12619427 0.2755107
