9

N -2.197576 0.3126444 -1.431875
C -1.2771637 0.4527754 -0.7465725
C -0.10191681 0.6231558 0.08897987
C 0.4709736 -0.5782125 0.7549858
N 1.1738553 0.05338785 -0.34553155
H -0.030126715 1.593896 0.5718416
H 0.93074197 -0.4597597 1.7316519
H -0.027323825 -1.5300703 0.5865532
H 1.0585362 -0.46781677 -1.2100333
