10

C -1.23510714 -0.55152675 0.24609538
C 0.48010813 -0.31396769 -0.98711920
N -0.75735433 -1.07285858 -0.81254700
C 1.06226618 0.13490945 0.29650150
C -0.30967285 0.52506851 0.72270094
N 0.31745307 1.08557074 -0.51653034
H -2.16702551 -0.85762156 0.70949262
H 1.06283021 -0.46879955 -1.88848042
H 2.05194209 0.30236972 0.69740928
H -0.50543951 1.21685549 1.53247744
