10

C -0.7569046 -0.73080343 0.7554894
C -0.6391813 1.0808749 -0.35674676
N -1.4637159 0.27111295 0.36351347
C 0.7308523 -0.7228351 0.40432286
C 0.5447398 0.4702779 -0.76974034
N 0.8246888 -0.9615775 -0.8930186
H 1.3229032 1.066722 -1.2420815
H -1.2100425 -1.6563739 1.1042719
H 1.517418 -0.9469955 1.1368645
H -0.8707576 2.1295974 -0.5028749
