11

N -0.8511063 -2.675111 0.69979835
C 0.033841684 0.58930236 -0.37317878
C 0.34195763 -0.4458575 0.63336164
C -0.24849722 -1.6268132 0.6116525
N -0.6235949 0.29867515 -1.4258614
N 0.58253187 1.8266282 -0.053235408
H 1.0955758 -0.26714888 1.3931769
H 0.22607507 2.60597 -0.58645856
H -0.7653935 1.1258827 -2.0083172
H -0.47796637 -3.466654 0.18047448
H 0.68657637 2.035127 0.92858756
