11

N 1.0316223 -0.019858034 -1.5519723
C 0.27968106 -0.02592963 -0.37502435
C -0.37328556 0.97064465 0.3207525
C -0.87246567 0.31761953 1.4709368
N -0.57358205 -0.9663787 1.4944035
N 0.13205433 -1.1559708 0.35620686
H 1.0292791 0.89420307 -1.985512
H 0.73037523 -0.7125629 -2.2260895
H -0.48036948 2.006604 0.036771793
H -1.4514537 0.74648064 2.2782102
H 0.5481443 -2.0548518 0.18131658
