11

N 1.0261289 1.411335 -0.579425
C -0.13484342 -0.02355361 0.97806036
C 0.2721306 0.25922152 -0.4021804
C -0.816982 -1.1855433 0.97366536
N -1.2889091 -2.1586668 0.36148465
N -0.05217908 -0.5792388 -1.3169521
H 1.0526493 1.7723892 -1.5220293
H 0.9203499 2.1233814 0.12524118
H 0.106914304 0.5666172 1.8469857
H -1.3537986 -1.8630319 1.7793657
H 0.26853913 -0.32290938 -2.244216
