11

C -0.9360152 1.3024042 0.29353383
N -0.088658355 0.15982193 0.027628284
C -0.38159987 -1.1489459 0.008333115
N 0.6950977 -1.857967 -0.27503926
C 1.6393659 -0.8971947 -0.42173037
N 1.2189817 0.3378804 -0.249138
H -0.57558435 1.8294064 1.1798408
H -0.9161377 1.9800457 -0.56345975
H -1.956108 0.95333785 0.46321973
H -1.3710213 -1.542094 0.20192163
H 2.6716793 -1.1166949 -0.66511
