9

O 1.00043682 1.37892667 -0.76067389
C 0.55763970 0.11102782 -0.41900177
C -0.62680345 -0.31242120 -1.28665828
O -1.49546805 -0.73337961 -0.39093883
C -1.00141763 -0.51802785 0.93594761
N 0.13804972 -0.01132420 0.99664391
H 1.32638882 -0.67113338 -0.57573152
H -1.67775845 -0.81787781 1.72690947
H 1.77893269 1.57420971 -0.22649691
