10

O 1.3089033 -1.1002551 1.3946254
C -0.7911063 -0.13169816 -1.1503925
N -0.06537864 -1.1350927 -0.5274095
C 0.49755383 -0.5412879 0.48479307
C -0.6484115 1.0510191 -0.49579275
N 0.19757046 0.7744367 0.5757816
H 1.3904575 -2.0295346 1.1394136
H -1.3735409 -0.3349835 -2.0381749
H 0.5306555 1.4073592 1.2845371
H -1.0467033 2.0400367 -0.66738117
