10

O -0.57667834 -2.2762725 0.26125863
C -0.29792625 -1.1173093 0.19489767
C 0.66428787 -0.4131525 -0.74386746
O 0.77632624 0.88799447 -0.21376136
C -0.36646003 1.1080724 0.5708739
O -0.83766556 -0.16550007 0.99105203
H -0.09215265 1.6978246 1.4473695
H 1.6434138 -0.9001098 -0.74709314
H -1.1693066 1.5976533 0.0035312255
H 0.2561617 -0.4192006 -1.7642608
