10

O -1.7313067 -1.600368 -0.54318625
C 0.7838056 0.18764675 0.9518986
C -0.11907907 0.21796648 -1.1118476
O -0.5925947 0.07835939 1.08251
C -0.9172308 -0.7645566 -0.50246686
O 1.0451198 0.50516516 -0.4510605
H 1.276379 -0.7636352 1.1827632
H 1.1858339 1.0100201 1.5459949
H -0.054364115 0.33175206 -2.1886063
H -0.8765629 0.79764974 0.034000833
