12

O 0.42990705 1.6987805 1.0353225
C 0.63081175 -1.2880391 -0.24485718
C -0.29562542 0.5423038 0.7812494
O 0.29806188 -0.37754592 -1.2575785
C -0.7471937 0.38487062 -0.67749476
O 0.51309454 -0.5993598 0.98467755
H 1.2162188 1.6742531 0.47176746
H -1.7038398 -0.15497811 -0.7428317
H -0.8213936 1.3428948 -1.1963036
H -0.05384113 -2.1501112 -0.25764647
H 1.6626335 -1.618202 -0.38750643
H -1.1288339 0.5451332 1.4912018
