12

O 0.87669708 -0.86097233 0.28673493
C 0.00566732 -1.24016769 -0.76083855
C 0.41718603 0.36112005 0.82908774
O 1.37050190 1.35546866 0.65345017
C -0.89505434 0.59961957 0.06897141
O -0.68804867 -0.08714937 -1.15407088
H -1.75318422 0.17564458 0.61186702
H -0.69424374 -2.01164623 -0.40443035
H 0.27610498 0.26409522 1.91027186
H 1.56795436 1.40022564 -0.29285390
H -1.06921325 1.65723485 -0.13982794
H 0.58563253 -1.61347322 -1.60836189
