11

C -0.36456847 -0.8016026 -0.04676814
N -0.8921353 0.14459777 0.80556357
C -0.4557974 1.4018699 0.5115094
O 1.5941434 -1.0401446 -1.3321424
C 0.97063303 -0.37027484 -0.3810744
O -0.9192213 -1.7794666 -0.5474931
H -0.67598844 1.8112208 -0.4687023
H -0.29801628 2.0921643 1.3413109
H 1.5887128 0.24972415 0.2583168
H 0.921873 -1.6062415 -1.7359704
H -1.4696349 -0.10184711 1.5954499
