11

C 0.9385499 0.46563065 -0.38131464
N 0.49340764 0.91501105 0.8288479
C -0.06292128 -0.70594114 -0.35331923
O -0.97375655 -0.73129743 -1.4148574
C -0.6036966 -0.048016135 0.9387557
O 1.7446516 0.87273586 -1.1810843
H -0.5696503 -0.6616954 1.8410581
H -0.47846943 -0.5743654 -2.2295547
H 0.6934048 1.7642525 1.3380473
H 0.41563383 -1.6797749 -0.18243892
H -1.5971535 0.38346013 0.79585993
