9

O 0.83495684 -0.02737381 1.09964727
C 0.65916075 -0.42426562 -0.26372069
C 0.27281349 0.91718528 0.22237998
O -1.00703477 1.32659885 0.40851917
C -0.39042756 -1.40075041 -0.49536604
N -1.26038700 -2.14076120 -0.68375909
H -1.59140607 0.56879541 0.56169293
H 1.57476781 -0.58450119 -0.83013177
H 0.90755649 1.76507300 -0.01926157
