9

O -1.2620225 -1.1980401 -0.111728
C -0.47981793 -0.59110016 0.6922762
C 0.2445026 0.612283 0.17639394
O -0.8781314 1.1429877 -0.36183375
C 1.3518084 0.26921555 -0.77481943
N 2.1758432 -0.0027119264 -1.5369096
H -1.3388667 -0.48132804 -0.8301041
H 0.6973527 1.1698807 1.015254
H -0.5106681 -0.9211867 1.7314707
