12

N 1.19788 -0.98559684 -0.33300573
C -1.4039098 -0.056096934 -0.6185333
N 0.4118607 -0.336286 1.8321178
C 1.0141436 -0.00022899358 -1.1516997
C -0.19573288 0.76192486 -0.78598976
C 0.13157387 -0.5648808 0.5226284
N -1.180598 -1.0455768 0.18610089
H 1.3222069 0.059109993 2.0158243
H -2.3748295 0.1107538 -1.0854026
H 1.6883473 0.21510336 -1.9808867
H -0.25998917 1.8262132 -0.99319124
H -0.35095298 0.015561109 2.3920374
