9

O 0.7666976 0.966581 -1.5327407
C 0.020513449 -0.41045058 0.68819296
C 0.55912226 -1.4632953 -0.15699378
N 0.95938426 -2.3428888 -0.79114896
C -0.33036685 1.1062742 -1.0893348
N 0.20172255 -0.4460031 1.930691
O -0.78968245 0.51647365 0.062054817
H -1.1351433 1.7292078 -1.4965875
H -0.25224754 0.34410143 2.3858666
