10

O 0.78659606 1.052132 2.0842986
C 0.07336923 0.05662448 1.497842
C -1.0182108 0.11875692 -0.8759391
C -0.46578643 0.15416384 0.31132624
N 0.8332699 -0.3734856 -2.0473955
N -0.40343976 -0.47572282 -2.026634
H 1.1556695 -0.86832666 -2.8876128
H -0.057181224 -0.8616425 2.072249
H -2.0374124 0.45040917 -1.0571007
H 1.1331259 0.74709123 2.9289663
