10

O -1.2703016 -1.545559 -0.3159757
C 0.9362021 0.67956936 0.9718038
C -0.17644192 -0.036776546 1.2662174
C -0.8866235 -0.31243697 0.076350726
N 0.392348 0.34568354 -1.1251023
N 1.1997122 0.94104826 -0.39174125
H 1.6697655 1.0970173 1.6525621
H 0.511992 0.58958966 -2.112459
H -0.73471564 -2.1892776 0.16739494
H -1.6419369 0.43114203 -0.18905072
