10

O 0.022880519 0.32696348 2.0204597
C -0.023680173 0.11921132 0.687534
C 0.8909278 -0.28755385 -0.25706163
C 0.14368129 -0.28151125 -1.4606117
N -1.1085297 0.09281196 -1.2773747
N -1.1915873 0.33440483 0.04979242
H 0.9135482 0.13820468 2.3366766
H 1.928042 -0.547497 -0.10229715
H 0.48431194 -0.5387433 -2.4542308
H -2.0595944 0.6437092 0.45711353
