11

C 0.9154515 0.48828706 0.8983964
N 0.33270696 1.4945557 1.4854474
C -1.2107682 0.30795017 0.5471719
N -0.014822385 -0.3098201 0.28927302
C 0.3472238 -1.1499673 -1.6155552
N -1.0196157 1.3752387 1.2670568
H 1.9762833 0.28227773 0.899595
H 1.2191461 -0.49072203 -1.7704092
H 0.12797518 -1.3077872 -0.1365451
H -2.1650083 -0.06766986 0.20504266
H -0.5085724 -0.62234294 -2.0694737
