11

N 0.29481393 0.30807644 1.9985957
C 0.1145344 0.10374406 0.7624715
C -0.63392925 0.8447469 -0.3417858
N -0.4272442 0.08256595 -1.5754753
C 0.2920449 -0.9165535 -1.2464364
N 0.6482893 -0.99167615 0.089617625
H -0.17166598 1.1613703 2.3004885
H -1.7056078 0.91397446 -0.118689634
H -0.25968024 1.8675206 -0.4604628
H 0.62544096 -1.6836573 -1.9400957
H 1.2230039 -1.6901116 0.53177243
