11

N -0.05962141 0.89446031 1.83622329
C 0.51078271 -0.97287139 0.15960403
C -0.02702853 0.35109466 0.69312670
N -0.55371196 0.95105581 -0.44803862
C -0.36912036 0.10679456 -1.52863046
N 0.22204102 -0.99509432 -1.27642713
H 0.37223886 0.29270324 2.53586112
H -0.72081501 0.40261589 -2.51190386
H -0.99759464 1.85504215 -0.44536351
H 0.03216864 -1.82521582 0.65455085
H 1.59066062 -1.06058492 0.33099770
