12

C 0.5829457 0.2923105 0.77774286
C -0.8933506 0.6669037 0.56188524
N -0.821716 0.025347216 -0.7616634
C 0.3732771 -0.7159567 -0.37425968
O 1.3369128 -0.872135 -1.3678558
H 1.4304268 -0.012745106 -1.8009375
H -1.5570621 0.1532741 1.2714188
H 0.17701396 -1.7303128 -0.004697614
H -1.6189487 -0.5198439 -1.0710351
H 0.87451404 -0.10937574 1.7505554
H 1.2671223 1.0935076 0.48546562
H -1.1511354 1.7290261 0.5333813
