12

C -0.62549263 -0.61380875 -1.0254018
C 0.80595595 -0.029722849 0.74366134
N 0.27746028 -1.0697187 -0.14336772
C -0.31870282 1.0012435 0.6747381
O -0.5006962 0.34930542 -1.9360199
H 0.015262144 2.0334768 0.8268822
H -0.25195253 1.1191423 -1.3882066
H 1.7482696 0.3712528 0.3528532
H -1.2993056 -1.3903579 -1.3992103
H 1.0340333 -0.5057286 1.7156732
H -1.0876786 0.76882803 1.4236754
H 0.20284672 -2.0339122 0.15472288
