10

C 0.29807016 1.0220906 0.0057837423
C -0.30134025 0.016306642 -0.944315
N 0.36483544 -0.0059177247 1.0794429
C -0.8925344 -0.7313581 0.9348685
N -1.3414942 -0.74966353 -0.2476786
C 1.0191346 -0.17954338 -0.24687149
H -1.347086 -1.1949066 1.8038784
H 0.5398006 2.0727897 0.07986291
H -0.38765547 0.18641493 -2.0123863
H 2.0482693 -0.43621242 -0.45258504
