10

C -1.083711 0.24409458 -0.251104
C -0.31836224 -0.596848 -1.0498235
N 0.95042485 -0.89036316 -0.76421076
C 1.445166 -0.32692137 0.33569908
N 0.81100035 0.49281332 1.1737604
C -0.45620131 0.7720134 0.87087274
H -2.1147475 0.47609806 -0.49264842
H -0.7311677 -1.0514733 -1.9484644
H 2.4808545 -0.5596398 0.5769751
H -0.9832558 1.4402262 1.5489439
