10

N 0.44854879 0.49316411 -1.74794109
C -0.58905148 0.05089732 0.57282186
C 0.35559605 -0.01876550 -0.39279616
O 0.66796988 -1.19084930 2.15134495
C -0.34137468 -0.58414882 1.85062722
N 1.46529728 -0.33493344 -0.97152073
H 0.69559133 1.46311747 -1.91327948
H -1.51143846 0.58422322 0.37741689
H -0.01895682 0.01231910 -2.50792130
H -1.17218197 -0.47502392 2.58124783
