10

N 1.7105483 0.06633832 0.52225745
C -1.5424784 0.80605084 0.923921
C -0.8166052 0.06147146 -0.08410856
O -1.0460893 1.3506293 1.890526
C 0.5256126 -0.06396386 0.02701019
N 1.545497 -0.7114635 -0.7777941
H -2.6394265 0.8561547 0.7502836
H 1.6890259 -1.7125564 -0.71029747
H -1.3254461 -0.39120212 -0.9264772
H 1.8993618 -0.26145864 -1.6153212
