10

O 0.7902619 1.9342855 -0.7619251
C 0.35351992 0.89026564 -0.3769267
C -0.92850477 0.4420224 0.32726365
N -0.50584406 -0.95667875 0.09511276
C 0.83358556 -0.56398195 -0.38930756
H -0.9551399 0.76517135 1.3775024
H -1.8722379 0.7239787 -0.15189204
H -0.48854697 -1.5279571 0.9319595
H 1.6616296 -0.7305844 0.31372997
H 1.1112766 -0.97652125 -1.365517
