10

O -0.04560953 -1.5969824 -0.15794975
C -0.3879528 -0.2830065 0.13626876
C -0.6276171 0.5251359 -1.1375747
O 1.7019744 -0.20109525 1.2568282
C 0.71226525 0.4069179 0.9268418
O -1.0519295 1.6514369 -1.1142184
H -0.36383516 -0.01051304 -2.0710802
H -1.3054811 -0.21598573 0.74417144
H 0.5492703 1.4744198 1.1584184
H 0.8189151 -1.7503276 0.25829467
