12

N -0.5140005 -0.23230298 1.243022
C 0.966421 -0.094085224 -0.8263489
N -0.23392954 0.6131899 -0.87714076
C -1.0005639 0.38555595 0.21567664
C 1.2201014 -1.139571 0.24382198
C 2.0195138 -0.10809835 0.23955764
N -2.2665656 0.91987574 0.22403328
H -2.9096572 0.5099872 0.8824904
H 1.3614115 -0.2114221 -1.8404089
H -2.6354952 1.1484349 -0.6814501
H 2.9111865 0.36678115 0.61058396
H 1.0815774 -2.1583452 0.56616277
