12

N -1.9716306 0.012985547 -0.56063306
C 1.8513501 0.29876345 -0.14663158
N -0.6286073 0.7909196 2.4377577
C 0.51575184 -0.25602183 -0.58058953
C -0.7496834 0.11621094 0.09794324
C 1.6452117 -0.93334705 0.15623578
N -0.72371346 0.47846016 1.3448638
H 2.466675 1.184863 -0.11494042
H 0.34666923 -0.4864452 -1.6347058
H -1.9402595 0.21100144 -1.5507125
H -2.7609892 0.43141657 -0.09026509
H 1.9492255 -1.8488067 0.64167726
