10

O 1.678598 1.3545508 0.60227114
C -0.8347243 0.5306134 0.059137363
C 0.66723233 0.65779114 0.26301703
C -0.44771802 -0.9288667 -0.32007903
N 0.97238266 -0.5609925 -0.073621474
H -0.6482486 -1.2089531 -1.3580645
H -1.4354231 0.6489513 0.96280533
H 2.1134238 0.06695655 0.25737542
H -1.2397022 1.1377383 -0.75301296
H -0.82582045 -1.697789 0.36017185
