10

O -0.3371955 -0.25310576 -1.3018351
C -0.8498919 -1.1085697 -0.3924729
C 0.4408784 0.7016878 -0.5428935
C 0.27523366 0.22601505 0.9180864
N -0.5943338 -0.9565382 0.8366675
H -1.4691027 -1.8947802 -0.8151952
H 1.4705958 0.6598525 -0.9064869
H 1.2274611 -0.053441864 1.3806366
H -0.19324507 0.98192877 1.5564079
H 0.029600097 1.6969516 -0.73291475
