11

O -2.06481933 -0.75972480 -0.23696646
C 1.29522751 0.10067528 1.01393522
N -0.13373213 -0.53796780 1.13792748
C 1.14664030 0.57418228 -0.24010619
O 2.07614563 1.26315419 -0.94596456
C -0.82237699 -0.28135782 -0.13231270
N -0.11210101 0.35852379 -0.93833097
H -0.62819919 -0.12608402 1.93165890
H 1.68691965 1.47648565 -1.80220091
H -0.05161919 -1.53798874 1.33116927
H -2.39208496 -0.52989785 -1.11880929
