11

O 0.09009100 0.93795477 -0.77348117
C -0.08112235 -0.18921282 0.03944774
C -1.11898362 -0.32256774 1.06230545
O 1.27579572 -0.49308771 0.11763306
C 1.48891048 0.65739753 -0.69096499
N -1.07524866 -1.16685782 -0.16140169
H -1.74970314 -0.88608303 -0.86310097
H -1.86489628 0.46792863 1.11642219
H 2.03662488 1.44623486 -0.16846141
H -0.93377088 -0.86887268 1.98151482
H 1.93230285 0.41716575 -1.65991306
