11

O -1.8726581 -0.088283196 -0.099012636
C -0.62247497 0.49846599 0.08227412
C 0.27120245 0.0743814 1.2634476
O 1.3673954 -0.1821809 0.33922693
C 0.54252946 -0.00086116116 -0.74314356
N 0.70150816 -0.26508987 -1.959943
H -1.7509633 -0.9478481 -0.5196086
H -0.74968165 1.5829335 0.021492742
H 0.5423336 0.8383955 1.993719
H -0.052208364 -0.8475405 1.7558631
H 1.6230173 -0.6623729 -2.1343157
