11

O -1.234598 0.004112211 0.48171097
C 0.8362731 -0.47745702 1.0690486
C 0.4126896 0.43165872 0.077061966
O 0.11836078 -0.022381583 -1.1930113
C -1.1992282 -0.4640824 -0.8159889
N 1.0226219 1.5600973 0.34124634
H 1.2171203 -1.4671425 0.82849574
H 1.1784579 2.1050942 -0.5086852
H -1.9420606 0.013828691 -1.4651833
H 0.86361235 -0.12562272 2.0938776
H -1.2732493 -1.5581051 -0.90857244
