11

C 0.29925245 1.251477 -0.04702522
C 0.54652745 -1.2336438 -0.0493881
O 0.3148264 -2.093553 0.7671268
C -0.4075146 -0.08403656 -0.2935717
O -1.5363241 -0.21849304 0.5206311
H 0.6428544 1.3129896 0.9905736
H -0.6984134 -0.13598576 -1.3571836
H -0.40193918 2.071756 -0.22294858
H 1.158322 1.3807266 -0.71415216
H -1.3917387 -1.0115672 1.0611703
H 1.4741473 -1.2396693 -0.65523237
