12

O 0.87435573 1.9604361 -1.2845639
N 1.0113548 1.4111602 -0.0060781133
C 0.3130608 0.3668328 0.10362824
C 0.13455564 -0.6056483 1.2431748
N -0.5620066 -1.5135741 0.29590636
C -0.5873064 -0.4795673 -0.76877934
H 1.4670247 2.7217844 -1.2438262
H -0.49016762 -0.21444072 2.0559616
H 1.0500741 -1.027286 1.6690958
H -1.4833417 -1.7942592 0.60948044
H -1.565716 -0.017535547 -0.9525656
H -0.16188757 -0.80790263 -1.721434
