10

N -0.49666658 0.25997305 -1.2915248
C 0.17251553 -0.15591104 0.8145603
N -2.1933877 0.33617154 0.39705873
O 0.77689326 0.0452292 -1.3514637
C 1.3452561 -0.22851093 -0.052870505
C -0.95770603 0.16364075 0.04703918
H 2.1117733 0.53981245 0.10832182
H 0.16686374 -0.30853862 1.8812215
H 1.831122 -1.2095927 -0.1303099
H -2.7566636 0.55772626 -0.42203265
