10

O 0.94483590 -0.01832318 0.53842053
C 0.47344076 0.99354959 -0.33554138
N -1.79992907 2.03026329 0.47655496
C 0.33347726 -1.21834707 0.43255944
C -0.81079085 1.55663299 0.11861175
N -0.59481612 -1.43097976 -0.39309568
H 0.34886657 0.61140810 -1.35059475
H 1.23935862 1.77339598 -0.31673103
H -0.92046870 -2.39064622 -0.32002527
H 0.78602610 -1.90695369 1.14984134
