10

O 0.7055772 1.2023515 -0.47493798
C -0.276158 1.3973377 0.2873569
N -1.0752834 0.39849153 0.4707707
C 0.17948522 -0.7641699 -0.7579189
C 1.0557553 -1.3514562 0.21873097
N 1.7530676 -1.8614186 0.987628
H -0.73440784 -1.3301823 -0.8975445
H -1.8649731 0.45966572 1.1033494
H 0.67015845 -0.52855706 -1.6962754
H -0.41322136 2.3779376 0.7588406
