12

N -0.7441126 -1.0233465 -1.0293784
C -0.23457868 -0.6343798 0.2805129
C 0.56829536 0.6647652 0.08553104
O -0.17088354 1.5743 -0.68061936
C 0.8906743 1.2592837 1.3933265
N 1.1573642 1.6832237 2.4331286
H -0.042697378 -1.5366665 -1.5545425
H -1.5614765 -1.6115662 -0.9514709
H -1.0890863 -0.41423172 0.930907
H 0.3864702 -1.3909467 0.7771615
H 1.5264992 0.42303568 -0.4047352
H -0.6864682 1.006529 -1.2798209
