9

O -0.69991237 0.4130786 1.6610439
C -0.21126929 0.29015452 0.30598795
N 0.39619735 -1.1804893 -1.0816263
N -0.0017133846 1.0582045 -0.72168714
N -0.0115490565 -0.99985766 0.2046349
C 0.39026248 0.05274545 -1.57798
H -0.05741834 0.8710209 2.2313416
H -0.48320076 -0.7589048 1.5789076
H 0.67860335 0.25404763 -2.6006222
