10

C -0.93582934 -0.048297804 -0.3417237
C 0.46603575 -0.7666852 0.7907743
N 1.4597512 -0.0027291097 -0.9830725
N 1.4934008 -0.9224182 -0.025760463
C 0.26441494 0.54262626 -1.0378854
C -0.39697862 0.45860118 0.8003561
H 0.25880173 -1.5340284 1.5321531
H -1.9431729 -0.20898803 -0.71856034
H -0.77076703 1.0521749 1.6315271
H 0.10434347 1.4297445 -1.6478083
