10

O 1.832521 -0.1569218 0.774452
C 1.1356353 -0.8099483 0.033405617
C -0.11737114 -0.2701 -0.5603883
C -1.0609603 0.39024264 0.3945983
N -0.29202008 1.1787703 -0.5399154
H 1.3951463 -1.8509879 -0.24251075
H -0.5076428 -0.7867382 -1.4334832
H -2.1266472 0.3284829 0.192837
H -0.7706369 0.39517987 1.4435139
H 0.51197606 1.5820205 -0.062509134
