10

O 0.42212343 -1.3011315 -0.024402775
C 0.9430665 0.0061886813 0.30097067
C -0.860204 -1.098132 -0.3992549
C -0.24775356 0.95224005 0.030371666
N -1.3393942 0.0720982 -0.40645048
H 1.808465 0.19163087 -0.3397514
H -0.55711037 1.506319 0.9226845
H 1.263815 -0.011643491 1.3459692
H -1.3955612 -2.0026877 -0.67549276
H -0.037446853 1.6851176 -0.7546437
