10

O 0.50805381 -1.22157201 -0.34838195
C 0.44174062 -0.36036955 0.80931771
C -0.14896161 -0.56337274 -1.32878544
C -0.33816871 0.87332646 0.30332857
N -0.65446996 0.57276637 -1.09908353
H 1.46500578 -0.13810036 1.12133207
H -0.18849873 -1.09346384 -2.27671790
H -1.26509178 1.04374203 0.86073279
H -0.06834202 -0.90862995 1.60583874
H 0.24873285 1.79567359 0.35241900
