11

O 1.6806264 0.6604029 -0.5183903
C 0.76009464 -0.049112335 0.2502993
C -0.33493373 0.69323313 1.0428389
O -1.3499376 -0.14365792 0.4165626
C -0.42347223 -0.6857657 -0.44023606
N -0.558619 -1.3778749 -1.4790481
H 1.2564062 0.9025744 -1.3507946
H 1.3137373 -0.75743335 0.8735706
H -0.34387556 0.576948 2.1281908
H -0.45902008 1.7403698 0.7529576
H -1.541006 -1.559684 -1.6759509
