11

O -0.20230911 0.53360183 -1.03981415
C 0.28238701 -0.39887940 1.02055694
C 0.85056306 0.15411637 -0.26697396
O -1.06911174 0.02497194 0.99392103
C -1.39807193 0.15759220 -0.35663607
N 2.07321291 0.23424625 -0.54780022
H 2.21527985 0.61472422 -1.47864398
H 0.36605393 -1.49474598 1.03175932
H 0.78254572 0.01461767 1.89792866
H -2.13947041 0.94890474 -0.47243574
H -1.76107894 -0.78914982 -0.78186199
