11

O 0.48969746 0.96423244 -1.0899825
C 0.79367536 -0.4299795 -1.0429451
C -0.512557 -0.19488676 0.8476381
O -0.012600565 -1.0911472 -0.09893552
C -0.7266062 1.0923704 0.26523808
N -0.8369948 -0.5181215 2.0294204
H 0.61971074 -0.8807343 -2.0226228
H -0.55634254 1.1143184 -1.1812456
H 1.8484286 -0.48745704 -0.75672233
H -0.4120322 1.9443376 0.86967844
H -0.69437873 -1.5129325 2.1804788
