14

C 0.17905086 -0.1031929 -0.20378397
N -0.89426845 -0.6139191 -0.8936185
C 1.9632707 0.70007807 1.1967248
O 0.02478495 0.2826045 0.9953738
N 1.3890709 -0.0029417446 -0.67659825
C -2.23381 -0.4475467 -0.36496535
H 1.686561 0.48425373 2.2244244
H 2.904294 0.23727643 0.9189409
H -0.79997057 -0.62851787 -1.8968545
H 1.6303794 -0.40659693 -1.5768609
H 1.8949715 1.7467239 0.9315636
H -2.632129 0.5641687 -0.521824
H -2.2109165 -0.642344 0.7096191
H -2.9012892 -1.170046 -0.8421408
