14

C -0.0700998 -2.1642444 -0.3560996
N -0.13518845 1.2922639 0.44046348
C 0.07168477 -0.057044156 0.64473265
O -0.17659336 -0.75097126 -0.4764632
N 0.42351186 -0.64463985 1.7220601
C -0.17928563 1.8763232 -0.8883545
H -0.77762127 -2.5450418 0.3865615
H -0.30950242 -2.5547733 -1.3456478
H 0.939516 -2.4591444 -0.058238614
H -0.93209696 1.3672205 -1.4918215
H -0.46943706 2.9260921 -0.7904881
H 0.27750206 1.8694919 1.1559169
H 0.5576813 0.021626268 2.476447
H 0.779929 1.8228419 -1.4190685
