11

N 1.4719042 0.3697457 1.362059
C 0.43719974 0.20132309 0.4411367
N -0.2782808 1.2323486 0.022716757
N -1.212609 0.6844533 -0.7798322
C -1.0982083 -0.65315855 -0.8914163
C -0.029588545 -1.0223215 -0.10589718
H 2.2834544 -0.19517301 1.1534364
H 1.7301979 1.3440502 1.4482276
H -1.8890264 1.288519 -1.2147913
H -1.7724533 -1.2344357 -1.503304
H 0.3574099 -2.015351 0.06766443
