11

N -0.02697123 -1.5977811 -0.8444766
C 1.0523258 -1.26267 -0.12474624
N -0.9627023 1.6427419 0.3178021
N -0.96195096 -0.4933857 -0.70322883
C -0.35902753 0.4185973 0.08251512
C 0.88289154 -0.048192497 0.5261173
H 1.5610482 0.43810028 1.2140775
H -1.9609896 1.6235297 0.17107494
H -0.40758997 -0.8494564 -1.7457798
H -0.7205076 2.0608687 1.2043478
H 1.9034737 -1.9323521 -0.09770331
