12

N -0.24141203 -0.45741296 -0.97079015
C 0.29365805 0.69868493 0.8331103
N -0.37586632 -1.7201252 1.0822451
C -0.11752849 -0.5153135 0.4177125
O 0.24378149 1.1431311 -2.6153893
C 0.16278988 0.7822096 -1.4568292
N 0.4501837 1.4949025 -0.3116905
H -0.33180618 -1.2584639 -1.5741732
H 0.85324955 2.41464 -0.34881243
H -1.3599405 -1.9644749 1.0831351
H -0.035503432 -1.6984097 2.033224
H 0.45839432 1.080632 1.8282576
