10

O 1.2440801 1.1583111 0.7111788
C -0.60874456 -0.2167911 0.29419672
C -0.2214845 -0.5460632 -1.123382
C 0.47252122 0.21979089 1.1359719
N -0.6954072 0.7488001 -0.80912507
H -1.4790462 -0.68247837 0.7531857
H -0.9255246 -1.2517709 -1.5737891
H 0.64565885 -0.11438926 2.1590736
H 0.738864 1.4195161 -0.15243985
H 0.8290829 -0.7349254 -1.3948708
