10

O 1.8332074 -0.1582389 0.7753207
C 1.1371022 -0.80929756 0.030592136
C -0.11691164 -0.26672694 -0.56208956
C -1.0631765 0.3852432 0.3938132
N -0.2916959 1.1812654 -0.5352121
H 1.4017309 -1.8495917 -0.24585915
H -0.5061483 -0.7830056 -1.4356424
H -2.1290119 0.32450703 0.18996811
H -0.77587384 0.3925188 1.4428545
H 0.5107778 1.5833261 -0.053745676
