11

N 0.6079932 -1.1476561 0.9136989
C -0.09747184 0.50309134 -0.7300152
O 2.1326966 -0.2506179 -0.52273345
C -0.6842285 1.6802024 -0.03387869
C 0.9894583 -0.352696 -0.11780244
O -1.4390454 0.05568935 -0.327925
H 1.3243896 -1.6645882 1.3997992
H -0.35217634 -1.2213507 1.201549
H 0.036790576 0.55350244 -1.8107661
H -0.45171058 1.5109046 1.0374126
H -2.0666955 0.33351886 -1.0093387
