11

N 1.618681 -0.0614511 -0.29452467
C 0.4774825 0.17824379 -0.9909727
O 0.3695174 0.13955484 -2.1999872
C -0.7170512 0.46816114 -0.11424299
C -1.159947 -0.520079 0.87450457
O -0.46896806 0.6563748 1.2745994
H 1.6590942 0.18358506 0.68192106
H 2.475444 -0.18010207 -0.81438315
H -1.4473015 1.139086 -0.56046927
H -2.211907 -0.5595916 1.1557908
H -0.59504426 -1.4437817 0.987764
