11

C -0.8801508 -0.8003697 -1.1911201
C -0.12716149 -0.0628735 -0.14202459
C -0.2631554 1.1335886 0.46883348
N 0.75926745 1.3037947 1.3978236
C 1.4466618 0.21996388 1.2993352
O 0.98483986 -0.6628091 0.3942326
H -1.2569187 -1.7551029 -0.81137973
H -1.7318366 -0.19919027 -1.5173593
H -0.24981418 -1.0069346 -2.0612392
H -1.0172973 1.8917983 0.31648287
H 2.3355658 -0.061865535 1.8464155
