11

C -0.27711856 -0.24497968 -0.4918427
C 0.3201377 -1.3803822 -0.4850055
C 1.0165524 -0.13248457 1.5628865
N -0.0033912156 -0.7986998 0.8580353
C -0.98910016 0.93223643 -1.0018655
O 1.2203237 1.0538903 1.5035998
H 1.5595921 -0.7988741 2.2591014
H -1.9842546 0.9823197 -0.5485988
H -0.43575066 1.8298837 -0.7139031
H 0.6553318 -2.3330204 -0.8537811
H -1.0823222 0.8901105 -2.0886264
