11

N -0.16496968 -1.65665408 -0.91632916
C -1.23698129 -0.98558320 -0.81665099
C 0.80032844 -0.65585941 -0.55571551
N 0.33469355 0.69842245 -1.02198236
C 0.23709410 0.37563693 0.34175713
N 0.66457669 1.13834625 1.40940324
N -1.03556425 0.38613251 -0.42883679
H 1.86376809 -0.86127759 -0.62540633
H -2.24584384 -1.34644155 -0.98581630
H 0.33744515 0.78629523 2.30116844
H 0.44545326 2.12098234 1.29840863
