10

O 1.64634849 -0.16539201 1.48405370
C 0.70785583 -0.06731207 0.73430086
N -0.59650983 0.15032368 0.91344772
C -1.31487290 0.19069083 -0.34323278
C -0.57596511 0.00321113 -1.44814761
N 0.81573298 -0.18073174 -0.76750798
H 1.47087596 0.52011466 -1.11476347
H -0.98363385 0.27101761 1.83685487
H -2.38055214 0.36640473 -0.28102646
H 1.21072032 -1.08832686 -1.01397898
