10

O 2.3633394 -0.39401442 0.27374628
C 1.172868 -0.19562547 0.1353575
N 0.32990178 0.5715102 0.9243155
C -0.97353566 0.55086136 0.43571976
C -0.97606444 -0.22387527 -0.66203517
N 0.32582927 -0.680828 -0.8495955
H 0.6616941 1.060475 1.7373338
H -1.7760764 1.0883092 0.9149179
H -1.7818563 -0.49316183 -1.3260239
H 0.6539 -1.2836508 -1.5837363
