13

C 1.42967596 -0.90841865 -0.43418904
N 0.00985873 -0.53682649 -0.57113385
C -0.22234594 1.03620724 -0.29933455
O 0.48046469 1.75123722 -0.99670417
C -1.17800719 1.16479380 0.65339451
O -1.83487406 0.04864296 1.19441981
H -0.58670595 -1.03718366 0.08999926
H -0.30517858 -0.71294045 -1.52431549
H 1.59981060 -1.93235832 -0.77409593
H 1.71303992 -0.80195784 0.61479809
H -1.53294985 2.14552657 0.95295248
H 2.00518967 -0.19766937 -1.02973970
H -1.57797795 -0.01905305 2.12394869
