13

C 1.6860764 0.02642884 -0.46278042
N 0.23973174 0.005977833 -0.746302
C -0.59100497 0.86623967 0.33631292
O -1.761055 -1.2394787 0.39767513
C -1.5619056 0.073388524 0.8523116
O -0.18857695 2.0140746 0.44613862
H 1.9684732 1.0703236 -0.31582147
H -2.2791302 0.46831515 1.5644758
H 1.8620955 -0.52154636 0.4649822
H 0.05725629 0.43325642 -1.653471
H -0.14578362 -0.93965155 -0.7237926
H 2.2512202 -0.4203278 -1.2837286
H -1.5373973 -1.837 1.124
