13

C 0.5853086 -1.5819626 -1.1657927
N 0.23090336 -0.64376193 -0.122857176
C -0.05246584 0.659963 -0.3778138
O -0.07791928 1.1703062 -1.4827168
C -0.3378286 1.4770744 0.87717
O -0.5637732 0.6921564 2.0356054
H -0.10891183 -2.4288173 -1.1822044
H 0.53304577 -1.0542055 -2.118688
H 1.6024574 -1.9610019 -1.0233239
H 0.27246603 -0.90896124 0.8500971
H -1.1711569 2.1543045 0.6509325
H 0.54443675 2.09225 1.0825104
H -1.4565622 0.33265594 1.9770815
