11

N -2.2674263 0.7657053 -0.9277249
C 0.27714926 1.2027528 2.3815186
C 1.3596419 -0.38528037 0.6950712
N 0.74919677 0.47958586 1.5805897
C 0.94397974 -0.6267492 -0.54392964
C -1.3186823 0.07229713 -0.49905875
O -0.126954 -0.07832159 -1.1783925
H 2.259805 -0.87032074 1.0575383
H -2.0196328 1.2170237 -1.8096323
H 1.5220135 -1.2823226 -1.18601
H -1.3790914 -0.4943705 0.43003017
