11

N 1.615376 -1.6012285 0.64105964
C 0.7587978 -0.7347559 0.30454648
C 0.85718954 0.67024666 0.737874
N 0.021056946 1.5880716 0.4315177
C -1.0552593 1.2047375 -0.37504753
C -1.2035102 -0.04972936 -0.80362046
O -0.32680207 -1.0415686 -0.4896368
H 1.3941861 -2.5166988 0.25494286
H 1.7134858 0.91293246 1.3640658
H -1.7652011 1.979946 -0.6369941
H -2.0093195 -0.41195297 -1.4287076
