9

O -1.1192666 0.3665224 -1.0523797
C 0.07298188 -0.091980375 -0.5128922
C 0.4856982 0.7421261 0.7031985
O -0.22822925 1.6257147 1.1002928
C -0.004404306 -1.505514 -0.06499957
N -0.051107433 -2.5939908 0.31565765
H -1.4777936 1.001753 -0.408888
H 0.8761121 -0.031131567 -1.2620248
H 1.446009 0.4865007 1.1820353
