9

O -1.33279100 -0.08255798 -1.07074019
C -0.43591447 -0.39753695 -0.33052210
C 0.46387282 0.61128847 0.34044682
O 0.11596617 1.90848500 -0.01332906
C -0.15490471 -1.81443454 -0.02440807
N 0.08720014 -2.91143843 0.23650300
H 1.50163159 0.37732001 0.05567777
H -0.63632354 1.85427340 -0.62226922
H 0.39126299 0.45460117 1.42864103
