11

C 0.9358878 -0.081160106 0.7784859
N 0.539806 1.9806036 2.2851672
C 0.69847435 1.0242889 1.6399618
C -0.9565125 -0.5737592 -0.909088
N 0.29551035 0.119877405 -0.6335656
H -0.7975539 -1.6457553 -0.76094174
H 0.6061383 -1.0450437 1.1500283
H 1.37314 -0.26102054 -0.53421265
H -1.7326343 -0.22954834 -0.21412201
H 0.3003658 1.1089476 -0.856774
H -1.262622 -0.39743024 -1.9449393
