13

N 0.57297747 -0.30418535 -1.90958390
C -0.30099222 -0.00406324 -0.80326522
C 0.14770337 1.00177960 0.16224414
N -0.80519488 -0.81861667 1.56582301
C 0.19078582 -0.40180760 0.61254466
N 0.34092953 2.23267579 0.32945060
H 0.29918667 -1.17849637 -2.34678232
H -1.38574167 -0.07812055 -0.92165201
H 0.51122294 0.42567961 -2.61053471
H 1.17717125 -0.87171602 0.60798772
H 0.69755845 2.40380567 1.27645758
H -0.92597635 -1.82396564 1.52748782
H -0.51963063 -0.58296909 2.50982246
