11

N -1.54809126 -0.23336444 0.31439005
C -0.93772069 -0.94285209 -0.84445635
C 1.48334932 0.71033923 0.63984928
O 0.81229370 -0.48771893 1.00421381
C -0.16872940 -0.11374589 0.08377678
O 0.44867178 1.09821587 -0.26179085
H -1.09979711 -0.54263708 -1.84394222
H -0.95882937 -2.02487693 -0.75386247
H 2.43211114 0.52706305 0.12779477
H -2.05823557 0.60422815 0.05933859
H 1.59497741 1.40534899 1.47468852
