10

N 0.79633789 1.84892337 -0.05873942
C -1.08732280 -1.07969402 0.25193420
N -0.91564470 0.28260644 0.32608054
O -2.02835292 -1.73376685 0.58250635
C 0.33698321 0.67309734 -0.11556072
O 0.04896638 -1.58947044 -0.28869742
N 0.90187809 -0.50582354 -0.65536298
H 1.71514803 1.91925681 -0.48242506
H -1.58703644 0.91527453 0.72485336
H 1.81904326 -0.73040321 -0.28458902
