10

N 0.9929441 -0.12133905 0.032450143
C -0.31199586 -0.44968104 0.24737972
N -1.0528535 0.64244825 0.27439392
O -0.27240464 1.6799866 -0.32378832
C 1.0037912 1.2172521 -0.406358
O 1.9403305 1.849015 -0.7974633
N -1.1433611 -1.4731902 0.24407658
H 1.7482613 -0.7489009 -0.18252678
H -0.9425758 -2.3126833 0.77355057
H -1.962136 -0.2829074 0.13828537
