12

N -0.50970312 -1.36017317 -1.61499069
C 0.25371124 -0.22636536 0.55741928
C 0.03546703 -0.45895216 -0.93297534
O 0.60519731 0.73442053 -1.30444199
C 0.76736421 1.14285322 0.08444950
N -0.84851072 -0.23200647 1.48760399
H -0.49395989 -1.14091442 -2.61223772
H -1.12015073 -1.18548483 1.69440781
H -1.65907819 0.21761619 1.06961177
H 1.05460942 -0.86220003 0.94446369
H 1.80809824 1.39100446 0.30137227
H 0.10695551 1.98020172 0.32531803
