12

O 2.6643224 0.64103836 -0.23569326
C 0.31638148 -0.06765969 -0.1059448
C 1.3575543 0.88482195 0.1388021
N -1.8106347 -0.288441 0.15803756
N -0.8323123 0.6266269 -0.19379726
C -1.1850511 -1.501191 0.13921852
N 0.109001875 -1.4278452 -0.022212954
H -0.17719984 1.6370288 -0.029035877
H -1.7390434 -2.4176924 0.3039572
H 2.7305515 0.7765293 -1.1891963
H 1.3253429 1.2510962 1.1712058
H -2.7589133 -0.114312254 -0.1353407
