12

N 1.51600948 -0.90766065 0.34892239
C 0.25120619 -1.05136728 0.39941249
C 2.72107468 -0.70605228 0.44131016
N -0.29815474 1.08774479 -0.50136292
C 0.09652346 2.19541194 -0.88688107
N -2.03296769 -0.19661657 0.41597715
C -0.67969359 0.03029698 0.08706591
H 3.27315932 -0.97734979 -0.47280975
H -0.15828354 -2.02119623 0.65490585
H -2.61730976 0.55836763 0.08075992
H 0.09274150 2.29257256 -1.98576382
H -2.16430501 -0.30415106 1.41846403
