12

N -1.2742763 -0.89228624 -1.3873348
C -0.42625552 -0.19547655 -0.50057656
C -0.1834586 2.2890146 -0.58520377
N -0.22138375 1.052303 -0.6058856
C 1.3509086 0.015132541 2.5044618
N 0.88617456 -0.4899921 1.4894569
C 0.25929055 -1.0024139 0.50590795
H -2.0535097 -1.3272698 -0.90012056
H 0.25522986 -2.0792792 0.38813052
H 2.4346151 0.20123513 2.434027
H 0.6035355 2.704155 -1.2373514
H -1.6308703 -0.27512252 -2.105511
