11

C -0.3598394 -0.20920935 -0.21643825
C 0.39795518 0.2519458 1.7888577
C -0.9688745 0.5404162 -1.3292383
N 1.4981775 0.038163397 1.1097606
C 1.0535287 -0.3572226 -0.115771964
O -0.743254 0.08855901 1.1362859
H 0.32927877 0.48621812 2.842857
H -0.27977574 0.87685734 -2.1034102
H -1.9582491 0.24496403 -1.6516094
H -0.68741524 -1.2050278 -0.58556855
H 1.7184678 -0.7556641 -0.8757239
