11

C 0.6879189 0.71909434 1.309395
C 0.6140765 -0.08720504 -0.6984844
C -0.87325037 0.077793114 -0.9139045
N 1.2361923 0.8851032 0.17748523
C -0.37058404 -0.82988 0.16294488
O -0.24168657 -0.254694 1.4545554
H 1.2390753 -0.52435374 -1.4653143
H -1.328323 1.0220431 -0.6339568
H 0.89493304 1.2864958 2.2112713
H -1.29679 -0.39991188 -1.790259
H -0.56156206 -1.8944849 0.18626732
