11

C -1.15462427 0.37186192 -0.36386926
C -0.34974470 -0.85217156 -0.06377022
C 0.27231903 0.26770833 -0.85249618
N 1.28030128 0.83880214 0.01788180
C 1.21788270 0.16747506 1.09250092
O 0.33797059 -0.85814468 1.17829387
H -0.61339295 -1.84223918 -0.41112570
H -1.93578133 0.26634753 -1.10834590
H 0.49475647 0.24831462 -1.91074759
H -1.36984897 1.06817542 0.43980709
H 1.82016255 0.32387031 1.98187128
