11

O -1.44152605 -1.99344517 -0.27853717
C -0.42597480 -1.17680426 0.12095188
C -0.51748785 0.22018963 -0.36998629
C 0.38899419 1.13192265 -0.12150880
C 1.26493464 2.06503653 0.10317052
N 0.51963220 -1.58604197 0.85435155
H 0.37882016 -2.57277264 1.07354428
H -2.07876187 -1.51448046 -0.82577877
H -1.38489141 0.50318011 -0.96645858
H 2.10438422 2.22185118 -0.56988885
H 1.19187669 2.70136486 0.98014050
