11

N -1.197468 -0.7520386 -0.7106892
C 0.48410472 0.6431806 0.26434487
C 0.41376224 1.5621891 -0.6799191
C -0.2835909 -0.6175725 0.16783719
N 0.46470067 2.3773985 -1.5782566
N 0.07314839 -1.5396049 1.148562
H 1.0946461 0.8509204 1.1374965
H -0.2049445 3.142601 -1.5578824
H -1.6161827 -1.6830059 -0.66558754
H 1.024937 -1.5022262 1.4820426
H -0.253113 -2.4818416 0.9920518
