11

C -0.5687436 0.9226373 0.6136577
C -1.3451476 0.4074864 -0.67645425
C 0.6266992 0.34395966 -0.13715552
C 1.1513637 -0.9737971 0.4007902
O 1.1453712 0.9965847 -1.0161505
N -1.4529587 1.3722713 1.2755778
H -1.37774 1.1401358 -1.463093
H -2.0956213 -0.3702166 -0.59560466
H 2.0242817 -0.74859136 1.0224768
H 0.41316217 -1.4975525 1.0127017
H 1.479333 -1.5929174 -0.43674618
