9

O -1.2530096 0.034506354 -1.6146994
C -0.51107687 -0.13310555 -0.5125207
N -0.67648786 -1.1481807 0.28865826
O 0.25720662 -0.9761701 1.294791
C 0.94956124 0.14179465 1.0548832
C 0.5267007 0.7459987 -0.07876825
H -1.8798089 -0.70096594 -1.6672143
H 1.714161 0.38222566 1.7794225
H 0.8727533 1.6538968 -0.54455256
