9

O 0.018705009 -0.22769946 -1.640725
C 0.37843016 -0.20256901 0.55244905
N -0.8226581 0.8307059 -1.1571932
O -1.3040624 1.3053529 1.1038246
C -0.59159136 0.85107064 0.13759446
C 0.6357902 -0.8220001 -0.6687728
H 1.1228777 -0.08762889 1.333218
H 1.29562 -1.6328725 -0.95524406
H -0.73311126 -0.014359339 1.2948488
