10

N -0.15809181 -1.1416944 0.6247349
C 1.4014083 0.42255926 0.60428405
N -1.6772527 -0.25201452 -0.91498363
O 1.0491208 -0.8011266 1.1722687
C -0.5258114 -0.17804971 -0.1727083
C 0.37337053 0.9853549 -0.20516425
H -2.3872368 -0.88296777 -0.56976455
H -2.021555 0.64022183 -1.2298032
H 1.7779641 0.2611403 -0.47564733
H 2.1680846 0.94657695 1.1667836
