10

N 1.0826845 -0.42798564 0.51473814
C -0.2286292 -0.2606346 0.5128011
N -0.986943 -0.7097233 1.5770901
O 1.5988641 0.019508384 -0.63151616
C -0.75621825 0.37152848 -0.66846234
C 0.48597282 0.53393763 -1.4140362
H 0.4749008 -0.026849462 -2.3576832
H -0.49449944 -0.8229044 2.451784
H -1.8838676 -0.25873363 1.6585233
H 0.7077353 1.5818565 -1.6432391
