9

O -1.1544737 -1.2880325 -1.0811439
C -0.37875012 -0.47333586 -0.34691894
C 0.47858512 -0.7899497 0.6529292
O 1.0307496 0.3943603 1.0832474
C 0.46904498 1.3320327 0.3148904
N -0.37673974 0.8872875 -0.55564165
H -1.6340563 -0.72645634 -1.7054589
H 0.7984344 -1.691085 1.1477091
H 0.7672058 2.355179 0.4903873
