10

O 0.85915214 1.1167465 -1.9399264
C -0.8147726 -0.11067897 0.7818527
N 1.3555726 -0.011346838 0.15848675
C 0.56202024 0.403139 -0.9902556
C 0.51659167 -0.31046075 1.1503538
N -0.8256189 0.28730696 -0.48075944
H 0.81375444 -0.82487965 -1.0407978
H 0.8669079 -0.75336385 2.073233
H -1.6176593 0.5204508 -1.0575622
H -1.7159479 -0.31691322 1.345376
