10

O 2.5584433 0.376237 -1.4362007
C 1.8705397 0.2520467 -0.4993489
N 1.3299439 0.1484064 0.5818399
C -1.052668 -0.13083401 -0.07632442
C -0.023471557 -0.034542885 1.0272372
N -0.7093887 -0.050621692 -1.2880166
H -0.08201002 -0.9421745 1.642654
H -1.5080283 -0.14328784 -1.9137167
H -0.3007587 0.79403365 1.6916015
H -2.0826018 -0.26926285 0.27027506
