10

O -1.55093589 -2.19710962 1.23173302
C 0.77738384 0.44087659 0.50819539
N -0.83781937 -0.09190192 -1.20598275
C 0.13802237 0.62452125 -0.84969161
C -0.72306930 -1.37325548 1.18454040
N 0.18976087 -0.58611949 1.32278787
H 0.59155822 1.40845573 -1.46597835
H -1.16670861 0.15448814 -2.13820410
H 1.84369645 0.22329492 0.36521712
H 0.73811141 1.39674993 1.04738328
