11

N 1.9664859 -0.7486588 0.021960652
C -1.726811 0.03648116 0.20857161
O -0.8750579 0.50386024 1.2670411
C 1.128404 0.26953518 -0.23687792
C -0.5088761 0.8119262 -0.052051723
O 0.35303745 0.04843194 -1.2789812
H 2.0028713 -1.5513401 -0.59736514
H -1.7144012 -1.04271 0.06458157
H -0.5308849 1.8568304 -0.3403075
H -2.7035892 0.51667696 0.14737464
H 2.6088214 -0.70103335 0.7960538
