11

N -0.071572624 -1.6392132 0.13034213
C 0.20255524 -0.5748641 0.9323105
O 0.7861506 -0.6316222 1.9965274
C -0.249114 0.74482113 0.3600491
C 0.25866947 1.1947012 -0.9421262
O -1.0665379 0.7003423 -0.8039841
H -0.7323045 -1.5259632 -0.62247217
H 0.12888661 -2.5619667 0.4855438
H -0.527589 1.485068 1.1066824
H 0.33598775 2.261894 -1.1451062
H 0.9348685 0.5468026 -1.4977673
