11

C -0.59598187 0.40263482 -2.09962407
C -0.55826403 0.48553153 -0.63795025
C 0.53776434 -0.34556145 1.51840036
O 0.98959542 -1.33643493 -0.61914099
C 0.40094484 -0.50684159 0.02044819
N -0.64799680 0.36823833 -3.25054493
H 1.03208583 0.60803038 1.73521031
H -1.56631628 0.30496533 -0.24520350
H -0.28107484 1.50478823 -0.34357876
H 1.13533400 -1.16176716 1.92198192
H -0.44609066 -0.32358333 2.00000147
