11

C -0.07094017 -0.48639485 0.118947774
C 0.34443787 -0.34791467 -1.2745277
C 1.408141 0.011272441 0.48267594
O -0.34772873 -1.7241868 0.3183191
C -1.0186532 0.5735327 0.6931489
N 2.4950173 0.29833293 0.7566172
H -0.7022159 1.5907764 0.44040307
H -1.0447133 0.4611463 1.7800968
H 0.95439357 -1.1690724 -1.6391524
H -2.0178232 0.37690124 0.29702145
H 8.4644256e-05 0.41560674 -1.9735502
