9

N -0.14406686 0.67279470 1.28441637
C -0.28282802 0.85077699 -0.04634609
O -0.74788570 1.83211490 -0.58425526
C 0.21665153 -0.29957011 -0.85695750
C 0.15256391 -0.79228642 -2.09369171
C -0.03425675 -2.08880931 -0.92813438
N 0.91533763 -1.49425377 -0.33766218
H -0.43313683 1.42584100 1.89118174
H 0.35762081 -0.10660759 1.67144867
