9

N -0.51419413 -0.340125 -1.6746858
C -1.0323355 -1.4667022 -1.4173212
O -0.40037334 0.6521733 1.9161689
C -2.1383193 -0.50691116 -0.45295694
C 0.030598853 0.35998952 0.8218469
C -0.8902208 -0.076787084 -0.269568
N 1.3273803 0.39901125 0.44942743
H 1.6157364 0.26317653 -0.5031229
H 2.0017276 0.71617484 1.1302118
