9

N -0.2621846 1.2195507 1.5195566
C -0.37014666 1.1572174 0.1651594
O -0.7440941 2.0682583 -0.5412188
C 0.014594407 -0.1399228 -0.41039574
C 0.30473128 -1.1630183 -0.975137
C 0.6338151 -2.3409173 -1.6297208
N 0.9066255 -3.326137 -2.172685
H 0.04036124 0.43847108 2.0786524
H -0.52370244 2.0864983 1.9657886
