9

N 0.43238655 -1.4400487 0.24129209
C 0.40904582 2.7487054 0.58259887
O -1.2858711 -1.2551931 -1.2643101
C -0.48922262 -0.77050173 -0.48943198
C -0.47735375 0.6836687 -0.28298846
C -0.721968 1.9192535 -0.45153752
N 0.57450986 1.5286375 0.6828454
H 0.4859087 -2.440117 0.12158722
H 1.0725645 -0.9744044 0.85994446
