9

O -0.93334365 -1.9386377 -0.58944786
C -0.20688415 -0.9932025 0.12087001
N 0.3057211 1.2318022 0.06994346
N 0.5499255 2.2052557 0.7355751
N 0.4359733 -1.0508415 1.1826212
C -0.25331298 0.3120938 -0.61158615
H -0.5946743 0.6088122 -1.6027625
H 1.5692943 2.3463008 0.7198187
H -0.8726993 -2.7215831 -0.025031934
