11

C 1.09180740 -0.87390606 -1.27329907
C 0.24719445 -0.20246394 -0.26441981
C -0.83500918 0.58564434 -0.17059045
C -0.60220962 0.51997431 1.28597522
N -1.00147181 0.88817006 2.40985081
O 0.53061979 -0.31354528 1.09707457
H 2.12045332 -0.50961046 -1.20276484
H 0.70726682 -0.68051127 -2.27641477
H 1.10311743 -1.95433388 -1.09200838
H -1.54599919 1.04765121 -0.83849053
H -1.81576968 1.49293086 2.32508719
