11

C 0.42060876 -0.47429162 -0.29757822
C -0.19563192 0.8372066 -2.124565
C 0.08315586 -0.803231 1.0719918
C -0.6225887 0.127342 -1.0617441
O -0.6369144 -1.7906525 1.1436357
N 0.62510514 -0.1460837 2.1358817
H -1.6680963 0.14463949 -0.7466544
H -0.85232973 1.4866008 -2.696006
H 0.5843594 -0.6260624 3.0216224
H 0.8522291 0.7808975 -2.412526
H 1.4101027 0.46363485 1.9659417
