11

C 0.59549826 0.73527575 2.2430143
C 0.30410248 0.16728121 0.9278129
C 0.072893 -0.3149083 -0.15031672
C -0.14601457 -0.9702361 -1.4405351
O 0.3297067 -2.0526364 -1.7142937
N -0.939359 -0.26449358 -2.2974346
H 0.4643685 -0.021587836 3.021606
H -0.063384265 1.5773709 2.4649415
H 1.6319625 1.085797 2.2815766
H -1.0380296 -0.6268062 -3.232962
H -1.2117441 0.68494385 -2.1034086
