10

N -0.321385 -1.0045733 -1.510237
C -0.07504207 -0.44236168 -0.2681435
N -0.03103484 -1.1753513 0.8153101
O 0.31572935 -0.30576843 1.8422285
C 0.45261368 0.92411965 1.3363228
C 0.22338799 0.93050265 0.004048441
H -0.8819155 -0.42757693 -2.121223
H -0.6756737 -1.9489393 -1.452261
H 0.7233162 1.6947925 2.0443184
H 0.27000386 1.7551559 -0.6903645
