11

C -1.3058931 0.10287898 -0.78282475
O 0.06862781 -0.015234284 -1.0863696
C 0.81838965 -0.53054094 -0.017632568
C 1.0208639 0.49270493 1.0864726
O 1.2815802 0.20740482 2.227135
H -1.7477375 -0.87476015 -0.539786
H -1.482915 0.78761864 0.059887957
H -1.7922852 0.50663805 -1.671609
H 1.8080863 -0.7745693 -0.42110154
H 0.3839606 -1.4505099 0.40453848
H 0.9473223 1.5483689 0.7412892
