10

O 0.020906027 0.32359058 2.020979
C -0.024991231 0.11856168 0.68969816
C 0.8903646 -0.28832087 -0.25492582
C 0.14562954 -0.2792536 -1.4596248
N -1.107509 0.097018845 -1.278037
N -1.1918919 0.33579823 0.04793568
H 0.9135814 0.13725738 2.3371732
H 1.9267337 -0.55079126 -0.103288166
H 0.48768884 -0.5374291 -2.4535189
H -2.060512 0.64356816 0.45360893
