10

O 1.57452785 -0.39720595 0.93570201
C 0.47039753 0.06437298 0.29337957
C -1.14651922 -0.19562095 -0.80795605
C 0.11594749 0.02756279 -1.17845572
N -0.89521709 -0.31611287 0.63837726
N -0.32703904 1.06312896 0.94516801
H -0.10026316 1.01376059 1.94028362
H 1.78660111 -1.27183672 0.59016395
H 0.64953215 0.23408103 -2.09308427
H -2.12796765 -0.22212981 -1.26357810
