10

O 1.4621236 1.1308184 0.30966604
C 0.30711174 0.42677075 0.18718542
C -0.7655132 -1.0546211 -0.5543742
C -0.5505457 0.17179587 -1.0345758
N -0.47257352 0.18972388 1.3679252
N 0.15077882 -0.9652142 0.5953938
H 0.15692955 0.3145574 2.1630743
H -1.4094276 -1.8998888 -0.7603644
H -0.91762596 0.7819603 -1.8450443
H 2.0387423 0.9040975 -0.428886
