10

O -0.6466745 -1.4675487 -1.1588142
C -0.18198717 -0.5035843 -0.3565695
C 0.8808475 0.8682605 1.0810916
C 1.0444925 -0.2471751 0.21324098
N -0.45034578 1.27564 0.9565275
N -1.0473585 0.45523667 0.026418094
H -2.0395536 0.48306808 -0.14068006
H 1.9552851 -0.8103954 0.05701899
H 0.4188213 2.0445614 0.6462795
H 0.06647316 -2.0980632 -1.3245132
