9

N -2.1957467 0.31118283 -1.4352326
C -1.2767786 0.4528564 -0.74962085
C -0.10287941 0.62239295 0.08763468
C 0.46935225 -0.5791942 0.7549943
N 1.1758095 0.056812953 -0.34202382
H -0.033954103 1.5915654 0.5726812
H 0.92583936 -0.45985606 1.7332785
H -0.027858678 -1.529407 0.58410704
H 1.0662166 -0.46635315 -1.2058184
