9

N -2.73698933 0.39666333 -0.10603797
C -0.35535790 -0.38793946 -0.75814530
C 0.76294395 0.50916861 -0.38673372
C -1.65459966 0.07069012 -0.38098349
N 0.47530991 -0.63487117 0.50983990
H 0.61746302 1.46457328 0.11917054
H 0.11387229 -0.39407605 1.43020841
H 1.07541153 -1.45093840 0.50194590
H 1.70194641 0.42672987 -0.92926422
