9

O 1.6808962 0.9311468 0.60382015
C 0.5636407 0.30855745 0.19352639
N 0.42856553 -0.24911952 -0.9995975
N -0.8095702 -0.73063093 -0.9557949
N -1.4800968 -0.53186184 0.15812144
C -0.6246708 0.13781287 0.9270956
H 2.3245041 0.89997417 -0.115177676
H -1.2079239 -1.2228361 -1.7378165
H -0.875345 0.45695713 1.9258226
