12

C 0.53216466 0.14622991 0.44694521
C -1.73632859 1.08119451 0.64292090
N -0.82019617 0.32498749 -0.01097490
N 0.72054494 -1.31706040 -1.45912492
C 1.27803639 -0.80441666 -0.44752296
O -2.88154781 1.24805831 0.28373363
H 1.08076197 1.10094549 0.47057715
H 2.31621935 -0.99321851 -0.14051130
H 0.56029359 -0.25059386 1.47339220
H -1.32429491 1.54809571 1.55942150
H -1.09048148 -0.14878590 -0.86494063
H 1.36482788 -1.93543635 -1.95391557
