12

C 0.50661975 0.54845136 1.7168634
C -1.2925174 -0.10608266 -0.5422162
N 0.83706886 -0.24831231 -1.792083
N 0.87630904 0.41396105 0.40620244
C 0.14067496 -0.18850377 -0.6602516
O 1.2133389 1.0165098 2.5775461
H 0.2677923 -0.6857305 -2.5135071
H 1.8479446 0.6127244 0.1754985
H -1.8820578 -0.6773122 -1.2515239
H -1.7979738 0.4407903 0.24397731
H -0.19845282 -1.2945728 -0.26690957
H -0.5187467 0.1680774 1.9064031
