9

N 1.7084185 1.8888955 -0.7605064
C -1.4261559 -0.26749897 -0.6564378
O -0.5886876 -0.6709785 -1.5373244
C 0.44580093 0.13878569 0.69914466
O -0.94471157 0.12238875 0.52660626
C 1.1558988 1.1032236 -0.11987611
N 1.0376245 -0.5393847 1.5730307
H -1.7702974 -0.6284667 -1.7914063
H 0.38211012 -1.1469648 2.0667691
