9

N -0.69306743 -1.7305163 0.72015387
C -0.040395666 -0.7586095 0.26732853
O -0.4582227 -0.009153283 -0.81499434
C -0.31089863 1.3499087 -0.7823478
O 0.06319322 1.9795378 0.15813245
C 1.283933 -0.46336418 0.7875652
N 2.3497396 -0.2871034 1.1926578
H -1.5845995 -1.8244781 0.23400906
H -0.6096816 1.7437783 -1.7625048
