10

C -1.63583240 0.79810494 -0.20416039
O -2.00747762 -0.11935461 -0.87859133
C 0.59382175 0.13427165 -0.33091446
O 1.83162233 0.27291087 0.27440149
C 1.09425474 -0.92599501 0.53283829
O -0.36421990 1.03152224 0.18299335
H 1.50479515 -1.83292267 0.09423273
H -2.28067295 1.58855843 0.20460496
H 0.57171067 0.05673120 -1.41505779
H 0.69199832 -1.00382710 1.53965294
