10

C 0.5241952 0.3357904 -0.30433822
O -1.979928 -0.41307506 -0.8516975
C -1.784986 0.41037753 -0.003975415
O 1.734276 0.6394125 0.2967413
C 1.309919 -0.7272253 0.30664715
O -0.5781161 0.8562376 0.40350935
H 0.4493031 0.4763126 -1.3797511
H 1.0032127 -1.1006411 1.2803184
H -2.5655549 0.9251553 0.57346827
H 1.8876793 -1.4023443 -0.3209223
