11

C -0.82168454 0.7470335 -0.83603644
C 0.50038636 0.62445754 -0.12779322
O 0.48916495 0.68383455 1.290832
C 0.86802447 -0.54394275 0.6913179
C -0.053654384 -1.6563473 0.8530804
N -0.7704406 -2.5555131 0.96278584
H -1.1531603 1.7890741 -0.83532494
H -0.7233237 0.4230715 -1.8771685
H -1.5888606 0.13922332 -0.34945974
H 1.3367146 1.1636386 -0.577107
H 1.916834 -0.8145295 0.8048737
