11

C -0.12817546 1.12377661 -0.82223385
C -0.39994036 -0.15635663 -0.04476191
O -0.70615798 0.20467049 1.30929957
C 0.91757911 -1.32850753 1.47885734
C 0.64920684 -1.18926919 0.12920631
N 0.17863403 -0.41616202 2.11205730
H -0.99279483 1.79077313 -0.77430114
H 0.07018156 0.87835669 -1.87028290
H -1.28386702 -0.67590373 -0.44722330
H 0.74507759 1.63989223 -0.41482341
H 0.95025678 -1.87126958 -0.65579402
