11

C 0.73939085 -0.6770845 0.92053396
C 1.7297661 0.19838287 1.3275753
O 0.1284411 1.4464827 0.38210616
C -0.6912084 -0.1423988 -1.2071971
C -0.33602566 0.09541416 0.25374442
N 1.3738431 1.4079813 0.89220554
H -1.0862954 -1.1562257 -1.3257068
H 0.6247875 -1.7052128 1.2395941
H -1.2287394 -0.00015806963 0.8918344
H -1.4498471 0.57198757 -1.5371486
H 0.19588728 -0.039168864 -1.8375417
