11

O 0.5737047 0.9857439 1.0584226
N -0.046321616 -1.8998083 -0.48585185
C -0.044210337 -0.6043228 -0.35616624
C -0.14978579 -0.2735563 1.0411518
O 0.2360572 0.4051803 -1.1501478
C 0.3172 1.531933 -0.18447098
H -0.6525384 2.0461988 -0.22959952
H -1.186757 -0.13970372 1.3810121
H -0.22456124 -2.3844428 -1.3593043
H 1.1359696 2.171287 -0.5159018
H 0.041242953 -1.8385088 0.8008562
