11

O -0.59528277 -0.86966969 -0.13310385
N 1.56740621 -0.79682434 0.93351877
C 0.54253446 -0.15645121 0.24598854
C -1.48607665 0.13399454 -0.58364607
O -0.70779253 1.25496189 -0.94591841
C 0.45710256 1.08765924 -0.21509537
H -2.16988521 0.41766254 0.23073492
H -2.02887253 -0.23306285 -1.45519655
H 2.05617710 -1.46104676 0.33990024
H 1.22228025 -1.29549850 1.74727834
H 1.14240875 1.91827522 -0.16446075
