10

N 0.82467526 -1.5069985 -0.4559522
C -0.20318198 -0.6490932 -0.36210293
O -1.3357754 -0.8179422 -0.7786525
C 0.20155866 0.6476601 0.36312005
O 1.3314639 0.81691086 0.7844391
N -0.8253964 1.5093527 0.4513352
H 1.7120675 -1.233549 -0.05892036
H 0.7066864 -2.3973343 -0.9058844
H -0.70016843 2.398969 0.9039788
H -1.7119294 1.2320249 0.0586392
