10

N -0.30009305 1.2929531 0.94249624
C 0.30766785 -0.5574809 -0.4934287
O 1.4587593 0.13981979 -0.6283696
C -0.70117474 0.112244286 0.41669086
O -1.7759023 -0.41399345 0.62709403
N 0.12614949 -1.6578923 -1.0792
H -0.93467295 1.7878938 1.550116
H 0.5990729 1.6876223 0.7272935
H -0.802542 -2.0096843 -0.8432089
H 2.0227354 -0.38148215 -1.2194831
