10

O -0.8270009 -0.6980861 -2.0985951
C -0.647834 0.40916976 1.0467709
N -1.3467326 0.088246144 0.02589521
C 0.8231435 0.2345395 0.7931815
C -0.3597728 -0.3036539 -0.9139011
N 0.87047434 -0.25196683 -0.5712662
H -0.058800448 -0.9360198 -2.6372795
H 1.3706295 1.178968 0.89987594
H 1.2754192 -0.48344362 1.4858655
H -1.0995257 0.762247 1.9694526
