10

O 0.42519516 2.0635514 0.911037
C 0.42382634 -1.1983756 -0.08167177
N 0.95534223 -0.20539977 0.6511384
C 0.23857716 0.8695884 0.3297618
C -0.6295875 -0.71720225 -0.8573845
N -0.71498 0.72131205 -0.59503496
H 0.8011792 -2.2114763 -0.029930279
H 1.1448399 1.9487635 1.544967
H -1.1241026 -1.1288736 -1.7277298
H -1.52029 -0.14188768 -0.14515282
