10

O 0.05862302 -1.449303 1.6643808
C 0.03617567 -0.47730464 0.73818517
N 0.136265 0.8011501 0.9513277
C 0.057913918 1.3642284 -0.31075847
C -0.08876365 0.406608 -1.2660457
N -0.1023359 -0.7989562 -0.5673579
H 0.16545893 -0.9960207 2.5129564
H 0.11232797 2.435305 -0.44454476
H -0.18316324 0.44485 -2.3395944
H -0.1925017 -1.7305571 -0.938549
