10

O -2.04923770 -0.62262415 -0.99414288
C 1.12368400 0.31453707 0.01056387
N -0.90277734 -0.20114418 0.98319923
C 0.29702588 0.14615773 1.25429329
C -0.89217705 -0.27072326 -0.43311246
N 0.19133694 0.00141019 -1.05401429
H 0.64050382 0.29278887 2.27436812
H 1.51224976 1.33568610 -0.08608559
H -1.90458343 -0.63272134 -1.95116871
H 1.98397513 -0.36336716 -0.00390074
