11

C -0.7739091 0.8768244 1.5457338
N 0.5811109 0.51690036 1.1763719
C 0.8385219 -0.052707434 0.0957492
O -0.14325282 -0.38764748 -0.84112895
C 0.2519384 -1.0254763 -1.967203
O 1.3773314 -1.3377509 -2.2390957
H -0.7905545 1.9512986 1.7529588
H -1.017895 0.36242387 2.480471
H -1.5376784 0.6429852 0.7957079
H 1.8433777 -0.33448532 -0.20416555
H -0.6289904 -1.2123649 -2.5954
