9

N -0.6943327 -1.7303351 0.7193888
C -0.041744024 -0.75821495 0.26735693
O -0.46172717 -0.007892722 -0.81304324
C -0.31104138 1.3523746 -0.78158534
O 0.063071415 1.9796406 0.15997411
C 1.2850425 -0.46556717 0.7901345
N 2.353249 -0.2862682 1.1890105
H -1.5840788 -1.8297756 0.23062266
H -0.6084388 1.7460388 -1.7618588
