10

N -1.5356945 -1.4218866 0.75052214
C -0.6797704 -0.64251304 0.26380342
C 0.14327198 0.33053175 1.0111547
C 0.92589724 0.96415627 0.13693133
C 0.636336 0.4215942 -1.2184879
O 1.101748 0.7002141 -2.2797196
O -0.34437463 -0.5466211 -1.0720336
H -1.9710217 -1.9931351 0.025489634
H 0.062462687 0.44657183 2.082788
H 1.6611453 1.7410878 0.2995515
