10

N -1.26762276 -1.09633149 1.00638284
C -0.40440727 -0.35276696 0.34638160
C 0.71723624 0.48139097 -1.33380597
C 1.10319378 1.11433596 -0.06810764
C 0.44881366 0.64242802 1.02198132
O 1.01475709 0.57621477 -2.47527524
O -0.31949615 -0.51669610 -0.94726635
H -1.85744102 -1.77060886 0.54331110
H -1.30136720 -0.96362238 2.00694253
H 1.86633360 1.88565619 -0.10054456
