10

N -1.4413673 0.34114784 1.327993
C -0.43274823 0.33339167 0.5310148
C 1.2940048 0.42650658 -0.7965233
C 0.60776067 -0.8910685 -0.9675066
C -0.4642671 -0.96883297 -0.16069153
O 0.52773154 1.1645166 0.22254445
O 2.2443428 0.9360443 -1.2834125
H -1.7067353 1.0864985 1.9603165
H -1.6436083 -0.82790023 0.84435
H 1.014886 -1.6003039 -1.6780849
