17

C -2.4825072 -0.92631584 0.5963092
N -1.3240787 -0.4235359 -0.11644329
C -0.2661871 0.07012787 0.62726104
O -0.3495126 0.21654956 1.8388153
N 0.85591924 0.42025802 -0.09460854
C 2.0664272 0.7589478 0.62545836
C 0.9363989 0.3498815 -1.5399839
H -2.2655327 -1.8322518 1.1777949
H -2.8353093 -0.16188468 1.2919011
H -3.2748454 -1.1422572 -0.12335534
H -1.086267 -0.9291902 -0.95696783
H 2.853952 0.010170619 0.4614421
H 1.8311208 0.79978126 1.6887226
H 2.4459383 1.7358149 0.30186105
H -0.018586306 0.64396465 -1.9872376
H 1.694685 1.0587074 -1.8872677
H 1.2183847 -0.6487678 -1.9037015
