17

C -2.25399896 -0.89315659 0.30278856
N 0.03939898 -0.18844357 1.35364170
C -0.07124919 -0.08956565 0.08701209
O -1.21378811 -0.40735323 -0.53959518
N 0.89933317 0.30026749 -0.81024306
C 1.31769817 0.13440923 1.95060385
C 0.59869693 0.63161746 -2.18802356
H -1.94422312 -1.80474387 0.82129325
H -2.53481770 -0.14599742 1.04986895
H -3.09029253 -1.09882426 -0.36773962
H 1.24333827 -0.02434323 3.03020493
H 2.13171595 -0.50646113 1.57809211
H 1.60857664 1.18660503 1.79695901
H 1.67300903 0.78765642 -0.39341884
H 0.00957471 1.55120466 -2.29295868
H 1.54311523 0.75344653 -2.72498035
H 0.04391237 -0.18631771 -2.65350521
