10

O 1.46959585 -1.78569466 0.01348609
C -0.10528519 0.40338334 0.73871980
C 0.80457313 -1.35323855 -1.04908528
N -0.76351749 0.39575220 -1.43234796
O -1.38832915 1.40116757 -0.75994512
C 0.00474512 -0.20776597 -0.56049564
C -0.99145284 1.39506573 0.52918840
H 2.00834226 -2.53045797 -0.27584858
H -1.43899857 2.15937158 1.14774191
H 0.40032704 0.12241687 1.64858635
