10

O 1.7132031 -1.7794995 0.82745206
C 1.1531563 -1.4680408 -0.19626752
C 0.19715989 -0.33948478 -0.2608069
N -0.38967657 -0.039683733 -1.390624
O -1.190269 1.0321081 -1.1226493
C -1.0679729 1.3602911 0.17673428
C -0.20109107 0.53003913 0.79558474
H 1.3189232 -2.0047054 -1.1494223
H -1.661925 2.2045846 0.49803793
H 0.1284922 0.50439143 1.821961
