9

N -0.1935953 -0.33921 1.4823672
C 8.942837e-06 0.46284464 -0.7470177
O -0.8463346 1.7904097 0.9464842
C -0.389072 0.7107328 0.6454684
C 0.843816 -0.8826726 -2.5952902
C 0.15255995 0.61545634 -1.997783
N 0.6338846 -0.9516418 -1.3756411
H 0.24654908 -1.1936241 1.1904273
H -0.44781664 -0.21229503 2.4509847
