10

N -0.16412894 -0.72487182 -0.78789294
C 0.90844495 -0.33366856 -0.17982098
C 0.46256759 0.69807278 0.81342336
C -1.04290106 0.85025907 0.68837658
C -1.34144123 -0.03884404 -0.29331602
H -0.16809497 -1.42788226 -1.51933453
H 1.88290610 -0.74263799 -0.41817121
H 0.98384298 1.64848496 0.63563890
H 0.75471684 0.39182351 1.82766390
H -2.27591198 -0.32073558 -0.76656695
