10

N -0.6299471 -0.38948143 -0.79033136
C 0.52806187 -0.7556131 -0.3451695
C 0.85960925 0.19700241 0.76497966
C -1.1419915 0.7601481 -0.07097946
C -0.28877622 1.181318 0.89751965
H -1.1114682 -0.8586657 -1.5501009
H 1.024658 -0.35915253 1.6984004
H 1.8105947 0.7065558 0.5585804
H 1.0605448 -1.601446 -0.7631049
H -2.1112857 1.1193343 -0.39979383
