10

N 0.56274796 -0.90431106 0.09278996
C -0.37805307 0.78066486 -1.1824269
C 0.23664084 0.0012494843 1.0162042
C -0.4074345 1.0513862 0.2978547
C 0.17723413 -0.503121 -1.1737783
H 0.39700067 -1.1611221 -2.0055249
H 0.46366188 -0.13737692 2.0643058
H -0.6277825 2.0227625 0.72846967
H 0.9965512 -1.7920903 0.3093958
H -1.4205666 0.6419583 -0.14728974
