12

N 2.34155933 0.02918564 1.66530401
C -0.15129294 -0.13739276 0.80681048
C -0.75465840 1.16053357 0.31148833
C 1.25520272 -0.05000887 1.27241133
N -0.16935235 -0.89194218 -0.48112288
C 0.10011564 0.22767378 -1.50432392
N -0.41084890 1.30623896 -0.96078670
H -0.84217364 2.01826909 0.96707969
H -0.73047466 -0.66617214 1.57056727
H 0.53687312 -1.62597368 -0.51442582
H -0.06824519 -0.07403821 -2.53171694
H -1.10670487 -1.29637304 -0.60128468
