12

N 1.7491028 0.8814023 2.10256
C -1.1365536 0.84939927 0.01179645
C 0.3726878 0.18950738 -1.4663014
C 0.8693547 0.4254632 1.503419
N -0.568491 1.0529547 -1.1688766
C -0.28460437 -0.14891466 0.7678113
N 0.24235065 -0.9147932 -0.4001749
H 0.5558552 -0.19094598 -2.4646084
H 1.1329013 -1.3685175 -0.20087731
H -1.6447992 1.6522042 0.53175783
H -0.8269618 -0.8119011 1.4494864
H -0.46084258 -1.6158589 -0.6659927
