11

N 1.7924573 0.956572 0.24394062
C 0.70738846 1.6016607 0.74551404
C -0.4033686 0.8365413 0.5052759
C -0.6148513 -1.4085433 -0.65722305
N 0.08378783 -0.24751641 -0.1407419
N 1.4105278 -0.15851729 -0.28891134
H -1.1102643 -1.9469134 0.15339872
H 0.79458964 2.5598564 1.2369343
H 0.14007407 -2.0476708 -1.1140368
H -1.3478124 -1.1090465 -1.4096341
H -1.4525288 0.96357745 0.7254836
