10

O 1.2470454 0.50789165 -1.7510021
C 0.47482234 0.08415677 -0.73596716
N -0.063926406 -1.0925409 -0.60740656
C -0.7534991 -1.0225633 0.59062403
C -0.61455905 0.2038626 1.1629755
N 0.19240303 0.92274314 0.28610945
H 1.3098519 -0.2439904 -2.3572607
H -1.3095117 -1.8711511 0.96335965
H -0.99194425 0.63680464 2.0771182
H 0.50931793 1.8747869 0.37144992
