10

O 0.71055116 1.86765196 -0.04613722
C -0.20847651 -1.58964807 -0.64397134
N 0.45141242 -0.35326405 -0.97296032
C -0.80018494 -1.23632840 0.54386823
C 0.26194576 0.60702617 -0.07256765
N -0.50721907 0.10870184 0.88626591
H 0.99254321 -0.24186495 -1.81616592
H -1.42138887 -1.81330612 1.21117774
H -0.79219126 0.63670267 1.69707258
H 1.31300819 2.01432895 -0.78658178
