11

C -0.8801454 -0.8005579 -1.190353
C -0.12579726 -0.06321921 -0.14189413
C -0.2620105 1.1317246 0.47052327
N 0.7593339 1.3037115 1.3987365
C 1.447481 0.22220667 1.2987969
O 0.9848758 -0.6608783 0.3910806
H -1.2588804 -1.7552716 -0.8114416
H -1.7331604 -0.19951345 -1.5165035
H -0.25200108 -1.008461 -2.061749
H -1.0177342 1.8894248 0.318715
H 2.338039 -0.059166107 1.844089
