11

C -0.19420609 -0.74815055 -0.73949250
C -0.02624470 0.19662581 0.19663132
C -0.95153579 1.02967042 1.00419603
N 1.10089779 -1.12434955 -1.09752533
C 2.05527802 -0.45379407 -0.42510547
O 1.32537687 0.36344326 0.37855762
H -1.08116882 -1.18033792 -1.17307382
H -1.98692367 0.79705471 0.74994465
H 1.33425555 -1.82354716 -1.78394118
H -0.77382755 2.09394110 0.81686593
H -0.80190114 0.84944395 2.07294278
