11

C -1.4052672 -0.22574721 0.9019583
C 0.9962297 1.2015158 -1.3815098
C 0.8758818 -0.7261448 -0.25554264
N 1.6121757 -0.0007218538 -1.2048391
C -0.19821906 0.01624162 0.07180724
O -0.10050651 1.21752 -0.559566
H 2.1996284 1.081741 -0.9623851
H -2.2989569 -0.21145257 0.27244696
H -1.50831 0.5600017 1.6550026
H -1.3321308 -1.1947076 1.3985778
H 1.159475 -1.7182459 0.064049855
