10

O 0.8238904 0.93631095 -1.7082667
C -0.018193813 0.8143827 -0.60357195
C 0.20724133 -0.48808634 0.12228966
O 1.0217927 -1.3006723 -0.26085076
C -0.6161177 -0.7881725 1.3654363
O -1.4422818 -0.02291446 1.787404
H 1.3464707 0.122130886 -1.7497447
H 0.13825415 1.6364582 0.111616045
H -1.0799857 0.8569082 -0.89587146
H -0.38107 -1.7663453 1.8315593
