10

O -0.00090940 1.05006891 -1.30813923
C 0.07707201 0.55665813 -0.00327042
C -1.06106134 -0.36015912 0.46787500
O -0.24826423 -1.43383480 0.65714012
C 0.90967350 -0.71810588 0.13257348
O -2.23846781 -0.28859807 0.63289452
H 1.22443171 -1.13446629 -0.82541593
H 0.31980509 1.33109908 0.73816938
H -0.70699473 1.70660667 -1.34828315
H 1.72471546 -0.70926860 0.85645598
