11

N 0.111877434 -1.493241 -1.0111355
C 0.90050656 0.48458785 0.11507047
C -0.4670114 0.666932 0.6457992
C -1.4892107 -0.27891034 0.4725068
C -1.0292462 -1.3379477 -0.4555983
N 1.8464991 1.2522237 0.45901683
O 1.0983431 -0.5482291 -0.7618215
H 2.725036 0.97037077 0.023787439
H -0.5624517 1.4958591 1.3455716
H -1.4228306 0.9289154 -0.11768151
H -1.7115116 -2.1405606 -0.71551555
