11

N 0.43137954 -0.35999982 -1.70632963
C -0.86271830 -0.28765088 -1.53069254
C -1.53443223 -0.42943586 -0.27758095
C -0.64111615 -0.22460873 0.88367596
C 0.72904120 0.29453201 0.57324870
N 1.40543936 1.06126929 1.29793720
O 1.25494016 -0.16625994 -0.64116636
H 2.30349655 1.28939882 0.86766914
H -1.41357673 -0.34596180 -2.46419166
H -1.10167339 0.39771559 1.65705947
H -0.57078019 -1.22899865 1.34037026
