11

N -0.8112852 1.4278533 -1.9617265
C 0.35793346 -0.5380387 0.75919855
O -0.68061584 -1.1941171 1.1555889
N 1.3595837 -0.88337684 1.5212353
C -0.8436834 0.5987895 -1.0055192
N 0.31735024 0.33812565 -0.28165212
H -1.7327107 1.5066576 -2.3828788
H -1.6952322 0.021221848 -0.64089364
H 2.3067095 -0.54338425 1.4662075
H 1.1508362 0.8357568 -0.55826735
H 0.271114 -1.5694877 1.9287074
