11

N -0.70001686 0.40317786 1.9830052
C 0.020804454 -0.2627522 1.016637
O 0.7386188 -1.2123121 1.2502854
N -0.12216283 0.282404 -0.252093
C 0.52471757 -0.23059808 -1.3654423
N 0.4041685 0.3504194 -2.487552
H -0.72881246 -0.08253352 2.8662162
H -1.5508884 0.8790233 1.7238816
H -0.6174294 1.1507572 -0.39626193
H 1.0962803 -1.131796 -1.141886
H 0.93472046 -0.14578995 -3.1967902
