9

O 1.2533293 -1.3534802 1.35988
C 0.12537648 0.90169203 -0.93650347
N -0.5718454 -0.5415821 0.57644475
O 1.2528706 0.30239698 -0.35809907
C 0.7450676 -0.5384523 0.5288865
C -0.98728794 0.39006668 -0.37033677
H -2.0231018 0.61920774 -0.57172924
H -0.11225991 -1.4168781 1.4711372
H 0.31785133 1.6370292 -1.6996796
