10

O -0.24537018 0.10027035 -1.8119932
C -1.2316612 1.307092 1.2732801
N 1.0070072 -1.0036454 -0.24759838
C -0.34015396 0.40574944 0.9697879
C 0.6038661 -0.70941573 -1.523198
N 0.5374008 -0.45912713 0.9179449
H -0.9459805 2.3503208 1.3457745
H 1.1604298 -1.3151147 -2.2567582
H 1.720422 -1.6971068 -0.08791294
H -2.2659605 1.0209776 1.4206736
