10

O -0.8690902 1.1497747 -0.41005978
C 0.13837972 1.7555889 -0.9643531
N -0.048043057 -0.7023627 0.6973567
C 0.0906883 -1.4886166 -0.3526227
C -0.59567237 0.52070004 0.8296941
N 0.99829155 2.322425 -1.4869907
H -0.22653154 1.1586277 1.6225696
H 0.4811024 -2.4827414 -0.19038053
H -0.21979092 -1.1409104 -1.328798
H 0.25066605 -1.0924854 1.5835845
