10

O 0.79678125 1.44540168 -0.79343164
C 0.94746161 0.44076073 -1.44779275
N -0.26354941 -1.12816728 0.00070919
C -0.58907660 -0.32375474 0.87692494
C -1.04034150 0.32686112 1.91247797
N 0.46638522 -0.79632533 -1.10951503
H 1.49330789 0.39789591 -2.40432785
H -0.43217147 0.41483946 2.80555370
H 0.63043842 -1.58700833 -1.71222206
H -2.00923524 0.80949675 1.87162335
