11

N 0.10386465 0.7125728 -1.7211868
C -0.0061636698 0.16710143 -0.4376192
C 0.89066267 -0.505733 0.36695918
C 0.1307897 -0.85942847 1.5075425
N -1.1193924 -0.44158676 1.4335787
N -1.1826595 0.1822632 0.23455966
H 1.0511996 0.6381254 -2.0700097
H -0.19403887 1.6783931 -1.7729707
H 1.9323803 -0.7022192 0.16471152
H 0.4628819 -1.3995739 2.3843298
H -2.0695245 0.5300854 -0.08989441
