9

N -2.0533407 1.2941822 -0.7965488
C 1.0965872 -0.29955065 0.79491144
C -1.0197434 0.6778625 -0.5122603
C -0.02899165 -0.030287517 -0.08415681
N 0.75214493 -1.1976947 -0.32977667
H -1.930616 1.9702162 -1.5498918
H 2.0345042 0.2378594 0.6637712
H 0.87926817 -0.62277645 1.8088125
H 0.27018747 -2.0298111 0.005139247
