9

N -2.1966739 0.30997342 -1.4309449
C -1.2769681 0.45222756 -0.7471757
C -0.103218466 0.6229854 0.087810844
C 0.4711532 -0.57862407 0.75427186
N 1.1730883 0.056769706 -0.34458914
H -0.032991312 1.593211 0.57069945
H 0.9302747 -0.4583542 1.7317622
H -0.026697507 -1.5296421 0.58522
H 1.062033 -0.46854678 -1.2070545
