9

N -0.9503794 -1.4964482 -0.9836916
C -0.17357619 -0.19686784 -0.32932884
C -0.33931747 -0.61479807 -1.7162325
C 0.79306966 0.29150882 0.6462222
N -0.5534435 0.9088499 0.44340175
H 1.6666834 0.8136017 0.25801262
H 0.9230328 -0.18235716 1.6166153
H -0.53087574 1.7685183 -0.10201258
H -0.8351935 -1.2920077 0.16701376
