10

O 1.71627793 -1.35228765 0.24583615
C -0.19047750 -0.51677325 -1.00900783
C 0.67286861 -0.48579367 0.15772414
N -1.14856499 0.34585529 -0.98338334
N -0.89211633 1.00046025 0.30822550
C 0.29212734 0.46195286 1.05227335
H -0.77825970 1.99850925 0.12323394
H -0.08617120 -1.18605152 -1.85647447
H 2.15274717 -1.17230974 1.08968381
H -1.73843124 0.90643806 0.87188854
