11

O -0.86598217 1.20902517 1.84380466
C 0.25495914 1.37677438 1.45361730
N 0.73823946 -1.00348001 -1.15578630
C 0.18061791 -0.49575903 0.06287655
C -0.57819311 -0.35704190 -1.18800980
O 0.90631598 0.60492535 0.56602293
H -1.47455554 -0.95865141 -1.31118557
H -0.17028989 -1.16665647 0.84590384
H 0.67552594 -2.01134818 -1.19750525
H -0.58522292 0.60741922 -1.69006458
H 0.91858540 2.19479245 1.77032604
