11

O -2.010054 0.98940796 1.3832015
C -1.079113 0.61355996 0.72741127
N -0.9751748 -0.5516112 -0.012606227
C 0.40677235 -0.8087233 -0.35895824
C 0.9401195 0.6308521 -0.32620436
O 0.08100972 1.3117568 0.5877389
H -1.6085367 -1.2935914 0.23932758
H 0.90941066 -1.4453927 0.37901318
H 0.50884473 -1.2624679 -1.3469447
H 0.85989743 1.1095395 -1.3070346
H 1.9668243 0.70666975 0.03505552
