9

O 0.64411 0.6475185 -1.2290733
C 0.070513174 0.5310827 -0.032278687
C 1.1033812 -0.46726447 1.1606896
O -1.0578874 -1.3150649 -0.9424609
C -0.9329289 -0.60644156 0.02597519
N 1.4318569 0.65684634 1.3683519
H -0.27018958 1.4775164 0.37552193
H -1.5044113 -0.7203489 0.9611186
H 0.5155561 -0.20384422 -1.6878445
