9

O -0.9705423 1.2075613 1.1896932
C 1.9364469 0.2758434 -1.6399367
C -0.045548223 -0.52965844 -0.14058696
O -1.2609601 -0.5325049 -0.7817753
C -0.036260173 0.46866786 1.0198869
N 1.0414516 -0.12363438 -0.9898256
H 0.87197745 0.49013084 1.6455745
H 0.18495288 -1.538249 0.2209454
H -1.7215184 0.2818435 -0.52397525
