11

C 2.07591894 -1.22183163 -0.87718114
C 1.09049227 -0.89138909 -0.08467502
N 0.15162182 -0.64925953 0.65890898
C -0.41995420 0.63969994 0.87391403
C -1.75352495 0.81893655 0.19249414
O 0.11174072 1.43993070 1.59355949
H -2.42161182 -0.00052503 0.47071335
H 1.87065289 -1.57073140 -1.88290985
H -1.61882060 0.78752838 -0.89469736
H 3.09938041 -1.12912104 -0.53388458
H -2.18589576 1.77676158 0.48375796
