9

O -1.9672884 0.42365497 0.07956463
C -0.655979 0.1355499 0.03186631
N -0.11012297 -0.89585054 0.6544722
N 1.1732191 -0.78393626 0.3265329
N 1.4971724 0.22650908 -0.44956645
C 0.33886313 0.8452152 -0.6616614
H -2.3970177 -0.23975146 0.6326793
H 1.8594422 -1.4425285 0.6584487
H 0.2617111 1.7311376 -1.272336
