11

N 0.33770862 -1.9631941 0.28670058
C 0.11425451 0.415723 1.0424393
C 0.08555554 -0.6019364 0.0044280416
N -0.51386654 1.3510214 -0.76292604
N -0.2161114 1.6026257 0.657127
C -0.30060592 -0.06940471 -1.1945521
H 0.3898801 0.26106456 2.0819721
H 1.2515578 -2.1153347 0.69528824
H -1.4848258 1.6239997 -0.922871
H 0.06187604 1.9889504 -1.3134671
H 0.27457702 -2.4935143 -0.57413936
