11

N -0.8760583 0.9925201 -1.3400825
C -0.28006783 0.2409192 -0.31172997
C 1.0160295 0.30060434 0.15321787
N 1.0788982 -0.5621379 1.2068973
N -0.07551607 -1.1768051 1.4531176
C -0.9104567 -0.6992506 0.54070324
H -1.563722 0.45845908 -1.8554107
H -0.19400388 1.3647463 -1.9868383
H 1.8696522 0.8782405 -0.1699786
H 1.8739417 -0.7615296 1.7904314
H -1.9386966 -1.0357664 0.5196727
