11

N -0.87357146 0.98973244 -1.3434757
C -0.28149003 0.23958525 -0.31077817
C 1.0151473 0.30291036 0.15615939
N 1.0774392 -0.5584847 1.2102082
N -0.07733477 -1.1764971 1.4533906
C -0.9121829 -0.69940054 0.5395006
H -1.5572883 0.45453098 -1.8632867
H -0.18982041 1.3622289 -1.9872682
H 1.8700694 0.87950385 -0.16574861
H 1.8706886 -0.7589628 1.7937373
H -1.941657 -1.0351465 0.51756126
