11

N 2.02355193 -0.42408282 0.61793788
C -0.50183724 -0.51579147 0.12578876
C 0.73211022 0.03123619 0.13120589
N 1.66898434 0.89520808 -0.06752476
C -1.62671294 0.20906908 -0.43469112
N -1.51060397 1.37938884 -0.93458402
H -2.57942562 -0.33959628 -0.38848155
H -0.62377807 -1.50863538 0.54540676
H 2.25256665 -0.35703680 1.60306127
H 2.57967698 -1.06975859 0.06932920
H -2.41453216 1.69999922 -1.26744808
