11

N -0.98195654 -1.7060314 0.5962053
C -0.34843352 -0.5389049 0.15323897
C 0.9649702 -0.1613329 0.26761463
N 1.0432824 1.0515054 -0.40096492
C -0.1920149 1.3247405 -0.8777246
N -1.0587046 0.39275277 -0.5588228
H -1.9847343 -1.6006618 0.5214153
H -0.72757524 -1.9756453 1.5365005
H 1.8275942 -0.6186506 0.7267115
H 1.8665986 1.6149486 -0.51542336
H -0.40902618 2.2172797 -1.4487503
