11

N -1.3545285 -0.94551957 0.48902866
C 0.2811559 0.4557577 -0.33990577
C -1.0961437 0.32009518 -0.01811459
N 1.0823399 1.5274497 -0.6738245
C -0.20898694 -1.5566216 0.49432445
N 0.80911016 -0.77679014 0.016410477
H 0.10029677 1.259948 0.5536833
H 1.7911147 -0.9928072 -0.03697668
H 0.5079084 2.2190847 -1.1570191
H -1.8721564 1.0594008 -0.16390504
H -0.040110342 -2.5699973 0.8362988
