11

N -1.47058093 0.30842595 1.38537294
C -0.56775761 0.11420866 0.51941167
C 0.93950155 -0.11639405 0.58303890
N -0.82719590 0.07175610 -0.84882251
C 0.35946811 -0.14047590 -1.52795050
N 1.40027415 -0.25507387 -0.80096051
H 1.44966183 0.72348379 1.06988130
H -1.07703596 0.31299068 2.32511057
H 1.17957069 -1.02147473 1.15227173
H 0.35755140 -0.20006566 -2.61326606
H -1.74345744 0.20261906 -1.24408741
