12

N -0.4393735 -1.668595 2.324476
C -0.34570867 -0.7712509 1.6034284
C -0.25381377 0.3611353 0.6631778
C 1.1543386 0.48148665 -0.006871877
N 1.0061785 -0.077590905 -1.3506066
C -0.23918104 -0.241228 -1.5367256
N -1.0996644 0.15158354 -0.512654
H -0.538287 1.2742343 1.1947967
H 1.4494654 1.5317453 -0.08148653
H 1.9268845 -0.051294845 0.5535684
H -0.66323113 -0.6215784 -2.46291
H -1.9576076 -0.36864683 -0.38819295
