12

N 0.57844439 -0.07317120 2.65299293
C -2.40226783 -1.27853108 -0.22051152
C 0.56690668 0.14718281 1.52095881
C 0.60451141 0.36531477 0.05452700
N 1.13263080 -0.76963681 -0.67374678
C -0.78435317 0.73559346 -0.48388131
N -1.70237530 -0.34462453 -0.33687101
H -1.18166512 1.60600457 0.04446127
H 1.25260033 1.22774333 -0.13233168
H 2.06928007 -0.99437941 -0.36211068
H -0.68564693 0.96830327 -1.54739754
H 0.55193457 -1.58979895 -0.51608974
