11

O -1.78219568 -0.42022198 0.15698003
C -1.16326676 0.75183621 -0.16224619
O 1.15006441 0.22699439 -1.02772492
C -0.51432116 -1.11852644 0.34216993
C 0.22901607 0.18409566 0.09124499
C 1.41102974 0.86729021 0.63863589
O -1.63091481 1.77969534 -0.53018334
H -0.37604804 -1.89081962 -0.41661885
H -0.43350770 -1.52274611 1.35151304
H 1.05922626 1.08696355 -1.47117852
H 2.05091729 0.05543841 1.02740798
