11

O 1.4397501 1.1114914 0.4610666
C -0.22233166 -0.09740762 0.07294284
O -0.11847744 1.3405766 2.1521275
C 1.071304 0.25371975 -0.65437263
C 0.2637288 0.88907385 1.1240761
C -0.95168877 -1.3651143 0.2558629
O -1.4693187 0.11581876 -0.58147
H -0.6732304 -2.0458577 -0.5616269
H -2.0772247 -0.4821812 0.07887163
H 1.7903862 -0.55550027 -0.7784265
H 0.94710255 0.83538073 -1.5690516
