11

O -1.2906262 1.9903915 0.6934831
C -0.67937255 -0.902045 -0.5978926
O -1.7983961 0.008459583 -0.37835234
C 0.21615346 0.016743306 0.21831761
C -1.0185571 0.9090037 0.28464857
C 1.2895678 -0.13696153 1.2121508
O 1.3778572 0.58127683 -0.440477
H 1.4731027 1.507243 -0.16125566
H -0.43369994 -0.9748053 -1.6588674
H -0.87860477 -1.8803663 -0.15983802
H 1.7425753 -1.1189396 0.9880829
