9

C 0.775276 0.11905637 -1.6550527
C 0.15146177 0.024067108 -0.33382067
C -0.3493104 -0.044843122 0.7597858
C -0.97189736 -0.15116353 2.0688732
O -0.65491945 0.5164181 3.0272093
H 0.81196415 1.1614937 -1.9862602
H 0.21845093 -0.4600203 -2.3978598
H 1.798617 -0.26065832 -1.6173136
H -1.7796427 -0.90435 2.134439
