9

C 1.7818352 0.036258213 -1.1112883
C -0.5702206 -0.65454483 -0.13384986
C -0.9342534 0.17227355 1.0604869
C 0.5593274 -0.39730757 -0.85115707
O 2.8268154 0.23111084 -1.6112274
H -0.4801966 -0.44352695 -1.4856256
H -0.16523966 0.89241344 1.3735383
H -1.1353225 -0.52764547 1.8807819
H -1.8827454 0.69096875 0.87834185
