11

N -0.35650933 0.49343637 1.9644719
C -0.15712911 0.18169035 0.6141734
C 0.52291685 -0.8710171 0.053079978
N 0.3437906 -0.713243 -1.3135241
C -0.41967133 0.3874149 -1.4940983
N -0.73625314 0.9576684 -0.3552683
H -0.7484868 1.4233766 2.0441816
H 0.47788325 0.41654894 2.527602
H 1.0795875 -1.6956619 0.46782333
H 0.7093836 -1.3132606 -2.0324466
H -0.71551216 0.73304695 -2.4759948
