11

N 0.51683661 -0.16886875 1.11306965
C -0.27090119 1.05529413 0.76514703
C 0.61794423 -0.85271687 -0.19078610
N -0.61490722 -0.48982464 -2.26633789
C -0.23159865 -0.17569333 -1.08219510
N -0.66929344 1.07484575 -0.42027824
H -0.41001304 1.80007437 1.54330456
H 0.01370062 -0.69423567 1.84002684
H 0.80806172 -1.91472797 -0.16286236
H 1.41950679 0.10119463 1.51006998
H -1.17933649 0.26465825 -2.64915826
