11

O -0.68706787 1.4624572 -0.4149293
C -0.19390668 -0.5551008 0.8173507
C 0.32399258 0.5896234 -0.020331403
O 1.9810331 -0.7149239 -1.1712039
C 1.0242863 0.009046889 -1.2522266
N -1.4493442 -0.6274011 0.9966543
H -1.5158747 1.1064415 -0.05147601
H -1.7032671 -1.4399825 1.5523539
H 1.0905501 1.1202642 0.56469536
H 0.56684756 0.30112627 -2.220496
H 0.56275064 -1.2515509 1.1996088
