13

C -0.25435118 1.24668309 -0.21563471
C 0.01753667 -0.19686148 0.11929363
N 1.23891989 -0.60857024 -0.04230577
O 2.23100272 0.07736197 -0.45236326
C -1.03462397 -1.12664907 0.62607940
O 0.28734814 1.63073294 -1.44720911
H 0.13619267 1.86532166 0.61078110
H -1.50086818 -0.72746634 1.53518335
H -0.62776469 -2.11640230 0.85741532
H 1.23013534 1.39384888 -1.39193080
H -1.33705439 1.40076628 -0.25963486
H -1.82842658 -1.24821159 -0.12118096
H 1.44195353 -1.59055409 0.18150665
