13

C -0.5516071 0.023847055 1.7064989
C 0.026126914 0.1684827 0.33133456
N 1.1379914 0.78687716 0.23172283
O 1.5600891 0.88131493 -1.1025896
C -0.71373415 -0.41567272 -0.85712755
O 0.061824687 -1.3110099 -1.6133326
H 0.077645324 0.5282493 2.4419725
H -1.5610414 0.44932857 1.7458122
H -0.6352822 -1.0357153 1.970301
H 2.4192321 1.3100427 -1.0255314
H -1.0992647 0.4147187 -1.4694271
H -1.5784113 -0.98016757 -0.49061787
H 0.8564313 -0.82029593 -1.8690159
