13

C 1.5056515 0.6810909 0.5231602
C 0.28110012 0.085903384 -0.089350015
N 0.018095935 0.3013411 -1.3111333
O -1.9945993 -0.30133805 0.6298382
C -0.67827886 -0.7798664 0.7021829
O -1.1267761 -0.21672373 -1.9255776
H 2.0954444 1.2229078 -0.21919668
H -0.37272432 -0.7735552 1.752711
H 1.2216756 1.3696703 1.3277671
H 2.1269186 -0.10506508 0.9698523
H -2.2006202 -0.28817484 -0.32093
H -0.59352654 -1.8136696 0.3284556
H -0.28236064 0.61747956 -2.36778
