11

C 1.0268092 0.29761288 1.5364702
N -0.0473699 0.3003123 0.56687266
C -1.365292 -0.6390622 -2.4734058
O 0.96265644 -0.89572734 -1.1121502
C 0.048479203 -0.2981239 -0.6329198
O -1.2147268 -0.087963074 -1.2873756
H -2.4077983 -0.30835655 -2.707337
H -0.9221644 0.7576724 0.78077954
H 0.7105677 -0.19995885 2.4582896
H 1.3388596 1.320848 1.7648497
H 1.8699789 -0.24725379 1.1059269
