12

O 1.2210927 -1.6087835 1.3138592
C -1.1082176 0.00798562 -1.3954122
C 0.93987113 0.041034136 1.4481616
N -0.89828223 1.3197272 -1.2320787
N -0.08829837 1.5493847 -0.16921078
C 0.14825654 0.31802237 0.25863326
N -0.46125376 -0.67196834 -0.45933923
H 0.5950288 -1.8690146 0.5945871
H -1.7319185 -0.40627444 -2.1738489
H 0.7014296 -1.2537373 2.1505103
H -1.2552036 2.095162 -1.7648354
H 1.937495 0.4784622 1.4289733
