9

O -0.055029176 2.1064014 1.3525434
C 0.3179315 0.8026545 0.357293
N 0.43118644 1.9670706 -0.13002378
N 0.07956426 -1.3592968 -0.25464243
C 0.06858672 -1.0937068 -1.5245345
N 0.2596835 -0.37757033 0.73813355
H -1.0070797 2.287286 1.2697555
H -0.0103092585 -2.2602372 0.20620242
H -0.0845342 -2.0726016 -2.014727
