12

N 0.6827218 -1.0360088 0.9012428
C -0.59205794 -0.9580567 1.1517931
C 0.9957593 -0.25140402 -1.4571425
C 0.53447336 0.83880985 -0.6585125
N -1.4249575 -0.035379387 0.63122696
C -0.76010704 0.9473418 -0.02455958
N 1.3938824 -1.0392623 -2.2069247
H -1.0901456 -1.6188049 1.8668507
H -1.0286516 1.9734966 0.2560181
H 1.0716754 1.7711145 -0.83654976
H -0.9536196 1.0146072 -1.2044345
H 1.171027 -1.6064538 1.5809915
