12

N -0.43709105 -1.6693666 2.3271487
C -0.34337747 -0.7730668 1.6055598
C -0.25236604 0.35908353 0.6617129
C 1.1506821 0.4817113 -0.008546089
N 1.0076011 -0.07624274 -1.349432
C -0.23965207 -0.24220544 -1.5372348
N -1.0992317 0.14781663 -0.51002777
H -0.53621745 1.272566 1.1926231
H 1.4480989 1.5319266 -0.08177163
H 1.9261957 -0.04852759 0.54995906
H -0.665382 -0.6181738 -2.4644194
H -1.9592601 -0.36552107 -0.38557196
