10

O 0.48445606 -1.4965748 -1.656957
C 0.239222 -0.72633404 -0.77417177
C 0.12157166 0.97511387 0.5282253
C 0.9231967 -0.33900708 0.5506891
O -1.4907906 0.19413757 0.4989369
C -0.6861326 0.47881266 -0.65246946
H -1.1812164 1.0303929 1.1326789
H -1.1835146 1.0172698 -1.4563979
H 0.7794136 -0.9709774 1.4304439
H 1.9937941 -0.16283365 0.39902213
