10

O -0.40516698 1.4531361 0.09652686
C -0.8564562 -0.9013567 -0.29586354
C -0.4159786 0.22867021 -1.2776964
C 0.32079226 -0.6862105 0.678968
O -1.7329401 -1.7141801 -0.37085363
C 0.6449299 0.4913764 -0.22370037
H -0.3429687 2.1868348 -0.54168904
H 1.6297584 0.92565984 -0.3766223
H 0.120969184 -0.4768573 1.7330624
H 1.0370609 -1.5070726 0.577868
