11

O 1.7513896 -0.91428185 -1.8347199
C 0.7296071 -0.26568428 -1.9192351
N -0.033842713 0.08275453 -0.85433733
C 0.34131444 -0.32180518 0.4912063
C -0.5765507 0.2519613 1.4718235
C -1.3429599 0.7243361 2.266159
H 0.3207277 0.104816906 -2.8780353
H -0.8791133 0.6153541 -0.9942954
H 0.3347678 -1.4166547 0.56710553
H 1.3677765 0.0029408627 0.69745094
H -2.0131166 1.1362623 2.9868777
