11

O 0.90977526 -0.21545614 -1.9924765
C -0.5721195 0.2929851 -0.0055805882
N 0.93062425 -0.14054008 0.54373956
C -0.3437769 -0.29142544 1.2913646
C -1.2272019 1.2277637 -0.7531041
C 0.34813488 -0.6463906 -1.0259094
H 0.15932554 -1.7172319 -0.82935506
H -0.5788476 -1.3376864 1.5019906
H 1.3937062 0.7588435 0.6079942
H -0.553827 1.7000394 -1.4860252
H -0.46579313 0.36909914 2.1473622
