11

N -0.63467382 1.34514674 0.65728921
C 0.43986450 -0.47928256 -0.85234981
C 0.51706528 0.83096100 -0.15126660
C 0.43371396 0.85557798 1.32645329
C -0.50013376 -1.39764687 -0.65365302
O 0.84990543 0.56656920 2.40707386
H 1.23575312 -0.66326520 -1.56887914
H 1.02011254 1.62709907 -0.69571558
H -1.55585774 0.92297562 0.66785270
H -1.31814586 -1.26412098 0.05056566
H -0.48760400 -2.34401411 -1.18737037
