10

O 0.06405193 -1.448321 1.6665455
C 0.0383665 -0.47791347 0.7382546
N 0.13748248 0.8008472 0.9496872
C 0.056379955 1.3640652 -0.31207144
C -0.09111103 0.40541756 -1.2645054
N -0.10208702 -0.79913116 -0.5672072
H 0.17035978 -0.99248695 2.514448
H 0.11056516 2.4342706 -0.4485093
H -0.18681067 0.4432377 -2.3393016
H -0.19719706 -1.7299857 -0.93734044
