14

C 1.8464946 0.7432947 -0.2940293
N -1.4530829 -0.19237499 0.024148548
C -0.20749559 0.27617273 -0.13702285
O 0.80261856 -0.52175057 -0.250339
N 2.6118546 0.88778174 0.7049765
C -1.7173733 -1.6117334 0.19053459
N 0.2418836 1.4959844 -0.2448361
H -2.7186306 -1.8451384 -0.17111546
H -0.9820979 -2.1712933 -0.39089957
H -2.1788223 0.4759162 0.2161044
H -1.6287699 -1.8955816 1.2420276
H 2.0850563 0.8176908 -1.3537741
H 3.5271976 1.2036713 0.4117339
H -0.22883262 2.33736 0.052490592
