14

C -1.09545776 0.02631373 1.31395158
N 0.35753224 0.07148263 1.27944954
C 1.10647435 -0.24836299 0.17971507
O 0.42859403 -1.09691073 -0.69523846
N -0.45362453 0.73331163 -1.77545949
C -0.24025673 -0.51186500 -1.70682574
N 2.31953302 -0.00242719 -0.08082813
H -1.41443650 0.20512907 2.34494180
H -1.43953010 -0.96736363 1.01842244
H -1.54736164 0.77618464 0.65724814
H -0.97186446 0.94611979 -2.62646734
H -0.56573835 -1.28821031 -2.40934536
H 0.76934471 0.79777349 1.84769432
H 2.74679226 0.55882485 0.65274147
