14

C -2.39207 -0.076439284 0.9720401
N -1.3514501 0.13738294 -0.013832863
C -0.033319823 0.037950303 0.34362087
O 0.355886 -0.07593524 1.490943
N 0.8423664 0.10587304 -0.73511183
C 2.215502 0.0030622398 -0.59219956
N 2.964124 0.11176012 -1.6138736
H -2.038154 0.29326722 1.9355695
H -2.6505036 -1.1369379 1.0817751
H -3.2863925 0.47932115 0.68150246
H -1.5955384 -0.019059008 -0.97950983
H 0.51649356 0.30521673 -1.671052
H 2.5176582 -0.1711332 0.4408832
H 3.9353988 0.0056708767 -1.3407547
