15

N 0.07978608 1.6583505 -1.0050983
C -0.7945239 -1.1963478 0.5630325
O 1.5932881 0.0758508 -1.5139179
N -0.5229896 -0.6445309 -0.76804465
C 0.5379496 0.33278343 -0.6554642
C -0.08223165 -0.20380189 1.4839411
O 1.0058436 0.2365146 0.67930657
H 0.31949747 -0.6414662 2.4002268
H -1.3319873 -0.23179352 -1.2192867
H 1.6153767 -0.8790845 -1.644074
H -1.8680737 -1.2681719 0.7672991
H -0.3291727 2.1026406 -0.18900199
H 0.8736365 2.2134387 -1.3093208
H -0.35681292 -2.1962662 0.6635332
H -0.73958653 0.641884 1.7468691
