15

N -0.71871865 -0.54984486 -0.67819235
C -0.56864933 -1.31979839 0.56061752
O 1.15935233 0.19373027 0.38404261
N -0.25346727 1.79668991 -0.68874851
C 0.31059453 0.46618392 -0.71831155
C 0.37071693 -0.43831390 1.38593953
O 1.06346874 0.41735323 -1.87912698
H -1.52991245 -1.49387616 1.05565576
H -0.10435591 -2.29179814 0.35769831
H 1.03636380 -0.98616975 2.05622606
H 1.06135961 -0.50188246 -2.16952541
H -0.40575227 2.07974331 0.27423863
H -1.63266351 -0.12633352 -0.79563062
H 0.40297182 2.44404199 -1.11406691
H -0.19130841 0.31027446 1.96918407
