15

N 0.40893704 -0.6026093 -0.9112285
C -0.568346 0.37578684 -0.88932264
O -0.69334364 0.52485406 1.1828024
N -0.284511 1.51403 -1.5410109
C 0.12839065 -0.54413605 1.5020112
C 1.1547524 -0.69100386 0.35262924
O -1.8373883 0.0555231 -0.7019729
H 0.6709365 -0.3743206 2.4436188
H 1.7225188 -1.6287025 0.3768406
H -0.43367124 -1.4942061 1.6163844
H 0.6672545 1.8365649 -1.5451895
H -0.03684665 -1.4840722 -1.1436982
H 1.8642097 0.14091483 0.39286086
H -1.7552665 0.15776017 0.3502019
H -1.0076262 2.2136166 -1.4849272
