9

O -1.1558537 -1.287588 -1.0816835
C -0.38012874 -0.4730421 -0.34720317
C 0.4784953 -0.789573 0.6541795
O 1.0303919 0.39509928 1.0845058
C 0.46950054 1.3313911 0.31638864
N -0.3774104 0.88567555 -0.5541243
H -1.6352874 -0.7269911 -1.7074602
H 0.7998786 -1.6909486 1.1475304
H 0.77041394 2.3559768 0.4878668
