9

O -1.1548373 -1.2864413 -1.0808204
C -0.3809703 -0.4746918 -0.34608957
C 0.47689947 -0.7898904 0.6547293
O 1.0302696 0.39425722 1.083558
C 0.47073367 1.330482 0.31534338
N -0.37841445 0.8862966 -0.55660987
H -1.6323118 -0.7232619 -1.7060406
H 0.797036 -1.6910405 1.1502727
H 0.77159506 2.3542905 0.4856573
