9

O -0.9776252 -0.7777098 -0.05378983
C 0.45173195 -0.8434148 -0.040341154
C 0.8711353 0.6270553 0.04182121
O 1.99183 1.0541826 0.07598789
C -1.264455 0.5296053 0.014750885
N -0.32266098 1.3956305 0.07211841
H -2.3278356 0.755652 0.015598864
H 0.79989815 -1.3244567 -0.9564248
H 0.77798134 -1.4165441 0.8302785
