17

C -2.481169 -0.9256593 0.59545857
N -1.323472 -0.42016166 -0.11834762
C -0.26473606 0.0719114 0.62535125
O -0.35426125 0.22018394 1.8362572
N 0.8581089 0.41765973 -0.09337752
C 2.0679169 0.7606032 0.6250561
C 0.9328532 0.34732306 -1.5381031
H -2.265633 -1.830369 1.1784623
H -2.8340864 -0.16023286 1.2907237
H -3.275674 -1.1414806 -0.12262618
H -1.0834299 -0.93157977 -0.95429504
H 2.8557167 0.010950036 0.46272206
H 1.8357221 0.8034782 1.6888248
H 2.4491596 1.73678 0.30038473
H -0.023438243 0.63745344 -1.985729
H 1.6920587 1.0544138 -1.8877712
H 1.2143639 -0.6512735 -1.9029912
