10

N -0.90682065 0.40224758 -0.14891446
C 0.03686 -0.63164043 0.041670747
C -0.27258435 1.5357594 -0.1672561
O 1.0206074 1.3762165 0.007797845
C 1.2491137 -0.008526169 0.15152167
N -0.7237382 -1.7257878 -0.0015879058
H -1.6741413 -0.56431425 -0.1492638
H -0.6639241 2.534429 -0.3002078
H 2.2733262 -0.30170736 0.2992673
H -0.33869842 -2.6166768 0.2669725
