10

N -0.6583942 -1.2181181 1.1908985
C -0.17797711 -0.30621496 0.2582426
C -0.7804695 0.73028606 -0.3765703
O 0.14080514 1.2662503 -1.2489085
C 1.2317883 0.5167215 -1.0837861
N 1.1209018 -0.42659223 -0.20879273
H -1.3191084 -0.83374065 1.8504803
H 0.10213899 -1.6848497 1.6659111
H -1.7551241 1.1902204 -0.3597846
H 2.095439 0.7660374 -1.6876903
