9

N -0.807563 1.8449433 -0.12889405
C -0.110614605 0.80998415 -0.35127258
N -0.23762849 -0.30969247 0.45919564
C 0.48136085 -1.4703418 0.30135173
O 0.369992 -2.4382176 1.0117036
H -0.5941665 2.5732858 -0.8036036
H 0.6248226 0.677915 -1.1515486
H -0.906288 -0.26131672 1.21695
H 1.1800851 -1.4265594 -0.5538822
