11

N 2.1490593 -0.008252089 -0.4163419
C -1.2332138 -1.0115006 -1.3420824
C -1.0776598 0.547094 0.96840084
C 0.05155413 -0.7891361 -1.2212595
C 0.9049487 -0.11291986 -0.21291038
O 0.32162723 0.3152191 0.92888635
H 0.6111761 -1.2079889 -2.0607772
H -1.3166386 1.5256928 0.54247326
H 2.5928288 0.47240222 0.3654669
H -1.6345984 -0.23833583 0.42889908
H -1.3690839 0.50772536 2.019245
