11

N 1.86659804 -0.35880264 -1.08578863
C 0.79661945 -0.25957638 -0.41836755
C -0.17157107 -1.38425646 -0.41384273
C -0.81016707 1.07995202 0.75881200
C -1.35626951 -1.57918604 0.10880901
O 0.52352173 0.81711836 0.35196534
H 2.42393563 0.48848818 -0.98255098
H -1.36420285 1.57885739 -0.04138708
H -0.74533037 1.72501874 1.63655711
H -1.33491549 0.15432745 1.05207131
H 0.17178125 -2.26194051 -0.96627758
