11

N -1.7463807 -0.75130427 0.972603
C 1.3915856 0.37717173 -0.05086448
C 0.42360765 0.48356527 -1.2143755
C -0.80449873 0.062778756 -0.8613939
C -0.60586506 -0.3145181 0.5260728
O 0.58831084 -0.16100079 1.0421085
H 2.216802 -0.32238635 -0.21693166
H 1.7968435 1.3362472 0.2858002
H -2.1138117 -0.48510817 -0.22419332
H -1.9119291 -1.0840386 1.9147742
H 0.76533616 0.8585932 -2.1735997
