11

N -0.63958194 -1.16079655 1.60836283
C 0.55411903 0.20038028 -1.31837193
C 0.15275248 1.39784804 -0.49615831
C -0.35440945 1.10980509 0.73099735
C -0.25802002 -0.33028276 0.65105458
O 0.23548442 -0.90170777 -0.44011083
H 1.62320193 0.13935009 -1.54765264
H 0.28708708 2.39395402 -0.91247145
H -1.01101119 -0.74839621 2.45027289
H -0.02005345 0.06235121 -2.24099494
H -0.56956925 -2.16250521 1.51507275
