11

C 0.3251888 1.1478727 -0.8594963
C -0.5664845 0.5157135 -0.19671671
C -1.591806 -0.3332916 0.3559567
N 1.3600018 0.1674103 -0.9199762
C 1.7560577 -0.47095528 0.19857766
O 1.1326593 -0.6531302 1.2425072
H 2.776404 -0.872946 0.06876338
H -1.2476251 -0.77256536 1.2941676
H 0.3959449 2.108249 -1.3566265
H -2.4839735 0.2813304 0.5340868
H -1.8563673 -1.1176877 -0.36124372
