11

C -0.87886775 -0.801639 -1.1905501
C -0.12786286 -0.06369462 -0.14048526
C -0.26330847 1.1344389 0.4681232
N 0.7598057 1.3054842 1.3945448
C 1.4452777 0.22156408 1.298183
O 0.9835289 -0.6642607 0.3961261
H -1.2549424 -1.7568597 -0.8125778
H -1.7313063 -0.19963932 -1.5162824
H -0.24789464 -1.0059952 -2.0605435
H -1.018212 1.8911084 0.3153542
H 2.3337824 -0.060506985 1.848108
