10

O -0.79747678 0.09251096 2.31181663
C -0.85441161 -0.41998654 -0.07271421
N 0.21750115 -0.12828113 -0.99831903
C 1.20095687 0.49270929 -0.30815287
C -0.24881138 0.12891560 1.23904152
N 1.01988103 0.66667452 0.96363736
H 0.20270686 -0.26099125 -1.99419073
H -1.78034441 0.10589776 -0.32426423
H 2.09837787 0.81367956 -0.82922406
H -1.05837975 -1.49112859 0.01236952
