9

N 0.66274869 0.86615740 -1.42019548
C -0.49593013 -1.07080477 1.29832209
N -0.25549523 -0.04298202 0.39286462
C 0.56536270 -0.23912603 -0.68008792
O -1.21034748 -0.94958641 2.26107289
H 0.19090882 1.75116223 -1.23787326
H -0.74228042 0.83089422 0.61228215
H 0.04406479 -1.98799978 1.01790193
H 1.24096809 0.84228533 -2.24428689
