11

N 1.3478324 0.5666061 1.840272
C 0.6410141 0.26485568 0.8370871
C -0.7679012 -0.17866245 0.85493124
C -1.1579067 -0.39547414 -0.39709246
C -0.013883998 -0.10557134 -1.3250042
O 1.0553799 0.2958188 -0.4687025
H 2.2848046 0.84570175 1.5532346
H -1.3271462 -0.28625888 1.7746708
H -2.1293473 -0.7269717 -0.74395525
H -0.23266317 0.705606 -2.0275872
H 0.2998171 -0.9856499 -1.897854
