11

N -1.35026251 0.13291911 2.24158690
C 1.28815914 0.77831017 -0.81359737
C -1.14834616 -0.15616042 1.07105337
C -0.96368252 -0.35735223 -0.21839688
C 0.39485078 -0.38654600 -0.82999570
O 1.49813442 -0.32936072 0.05797470
H 2.03909926 0.90482456 -1.59153600
H -1.39377655 -0.64788274 2.89386397
H -1.83050096 -0.52112016 -0.85000494
H 0.95146338 1.68835958 -0.31969335
H 0.51486126 -1.10599122 -1.64125457
