11

O 0.42905375 1.6898223 0.7866134
C 1.0041634 -0.74661225 0.1371082
C -0.80742586 -0.20192158 -0.36018443
N -0.31425202 -1.3688124 -0.1838325
C 0.41045648 0.66156787 -0.16099142
O -2.0604987 0.14991108 -0.66447234
H 0.03710548 1.3586577 1.6051736
H 1.8121078 -1.0845436 -0.5193205
H 1.2878892 -0.89235675 1.1840227
H 0.7855712 1.0976624 -1.0912684
H -2.584171 -0.6633749 -0.73284835
