12

O -0.44325423 1.6821547 0.5774259
C 0.04997314 0.15326099 1.327058
C 0.45112038 -0.6025668 0.0926307
O -0.7016938 -0.58246243 -2.0047877
C -0.71561724 -0.90786624 -0.8393958
O 1.4040023 0.14768133 -0.6268419
H 0.85317755 -1.5687433 0.44907618
H -1.5797983 -1.4240019 -0.3844278
H 0.21634567 1.6868265 -0.15054904
H -0.929024 -0.1807749 1.6931661
H 1.1864814 0.009486739 -1.5649917
H 0.20828727 1.5870054 1.4316372
