12

O -0.7757849 0.8440242 -1.1458535
C -0.5543045 -0.45044428 -0.62612
C 0.90528816 -0.9013228 -0.47188038
O 1.7342219 0.1673423 -0.48517227
C -0.42264605 -0.43210843 0.8615853
O -0.19533323 0.81439525 1.4023718
H 0.050293613 1.1131213 -1.5838554
H -1.2282653 -1.1893458 -1.0557988
H 1.4222561 0.91705984 0.036040105
H 0.705466 -1.176506 0.794764
H -0.98487204 -1.1377568 1.4683677
H -0.6563198 1.4315412 0.80555147
