12

O -0.6626968 -1.4525459 0.88141346
C -0.06125794 -0.22331594 1.1998606
C 0.44492725 0.4513569 -0.07426826
O 1.3264266 -0.42675063 -0.721674
C -0.7111768 0.77552974 -0.99604416
O -0.72307926 0.38531607 -2.1385686
H -0.025357168 -1.9063586 0.31017068
H 0.78508806 -0.3423997 1.8901641
H -0.81885445 0.3981593 1.6908069
H 0.9407927 1.4025214 0.18472132
H 1.0280292 -0.46431765 -1.6457093
H -1.5228416 1.4028049 -0.5808725
