11

C -0.40207736 0.26610039 -0.74393268
C -0.22544764 1.73183565 -0.45973756
O -1.47225900 -0.40660966 -0.02315182
C -0.16127887 -0.74934799 0.24137675
C 0.52017886 -1.59496334 0.94576763
N 1.22253252 -2.28603817 1.69547606
H -0.96671207 2.31441800 -1.01676273
H -0.34328497 -0.04045113 -1.78995174
H -0.34003479 1.93394375 0.60911505
H 0.77172030 2.05221834 -0.77670166
H 1.39666298 -3.22110571 1.31850255
