11

C 0.26681244 -1.6014886 1.0358648
C -0.20144306 -0.7586719 0.1721442
O -1.3849207 -0.44523573 -0.466019
C -0.17118628 0.27203077 -0.8261997
C -0.13442722 1.735153 -0.48230016
N 0.7365496 -2.2903273 1.9511768
H 0.90099543 2.089206 -0.4835736
H 0.20569287 -0.00906043 -1.8113576
H -0.69505775 2.3101592 -1.2267553
H 1.0449479 -3.2116191 1.6304064
H -0.5679631 1.9098545 0.5066133
