11

C 0.75085914 0.5134243 2.0383956
C 0.044532616 -0.28069198 -0.5468439
O 1.1762615 0.6655364 -0.50080967
C 0.7773446 0.052205697 0.6494966
C -1.3119665 0.31306717 -0.80880094
N 1.6061825 -0.4653572 1.9809062
H -1.4636027 1.1992446 -0.18907851
H 1.6149307 -0.9793425 0.9041486
H -1.3989755 0.5969334 -1.8623791
H -2.092968 -0.41936302 -0.58201855
H 0.29740134 -1.1956568 -1.0830159
