11

C -0.822724 0.74632245 -0.8349305
C 0.500255 0.6265293 -0.1280646
O 0.49381804 0.6861642 1.2893358
C 0.8686716 -0.5423269 0.69196796
C -0.053256597 -1.6559491 0.8550415
N -0.77003634 -2.5553944 0.963299
H -1.155013 1.7881404 -0.8353264
H -0.72404546 0.4190735 -1.8756821
H -1.5882801 0.13839062 -0.3466193
H 1.3341249 1.1653877 -0.5806658
H 1.9164859 -0.81633765 0.8016443
