11

C -0.62800455 0.9468333 -0.3552147
O -1.1570904 -0.9244951 1.2470733
C -0.7331436 -0.52406645 0.062996715
C 1.1411929 -0.25352585 0.004593115
O 0.75022906 0.9006891 -0.7128019
H -1.2565616 1.2479477 -1.1998551
H -0.8399495 -1.2057527 -0.8008757
H 1.7340785 -0.0015608509 0.9010495
H 0.13491714 -0.79100996 0.9511892
H 1.6662425 -0.9889227 -0.6106181
H -0.8119106 1.5938636 0.5124636
