11

C -1.3058457 0.103175856 -0.78488606
O 0.07004634 -0.016599853 -1.0824884
C 0.8167095 -0.5310635 -0.016467268
C 1.0212315 0.49299216 1.0872635
O 1.2833985 0.20771906 2.2274742
H -1.7489357 -0.8731251 -0.5403307
H -1.4854466 0.7930709 0.05331249
H -1.7923038 0.5013056 -1.6765051
H 1.8064901 -0.77492565 -0.42018023
H 0.3870278 -1.4506192 0.40779942
H 0.94762784 1.5480696 0.7450082
