11

C -0.57782286 -0.98515904 0.1618872
O -0.9318939 -0.05267398 1.1936139
C 0.06876094 0.13341686 -0.6726093
C -0.12757023 0.9759538 0.5992005
O 1.3493738 -0.04089721 -1.2046288
H -0.55736226 0.46174392 -1.5047649
H -1.4534171 -1.4955335 -0.25362173
H 0.8076518 1.1426882 1.1564423
H 0.14602596 -1.7373991 0.51309264
H 1.9426197 -0.3279236 -0.49815056
H -0.66636586 1.9257836 0.5095388
