9

N -0.6277125 -1.2817262 -0.7573707
C -0.13761277 0.83948356 0.17147842
C 0.21156019 -0.57650775 0.07681765
N 0.60394204 1.5777302 0.9561725
N 1.2408818 2.2195435 1.6288669
O 1.1206657 -1.0986669 0.69760656
H -1.1304315 -0.7961789 -1.483448
H -0.30859545 -2.2129807 -0.9824262
H -0.9726973 1.3293033 -0.30769703
