10

O 1.4470154 -1.2701875 0.87112784
C 0.5480128 -0.45258462 0.32168722
C 0.8846661 0.8935046 0.08504175
N 0.0067765373 1.7130469 -0.4555809
N -1.2053529 1.258263 -0.77809393
C -1.4673095 -0.015319902 -0.5339998
N -0.64297986 -0.91901135 0.010059699
H 1.0297743 -2.143311 0.95212084
H 1.8600157 1.2956753 0.3343802
H -2.4606185 -0.3600753 -0.80674314
