10

O 1.31839714 -1.24809260 0.71783839
C 0.39138662 -0.37886091 0.23957112
C 0.92869948 0.95403936 0.03519313
N 0.17565068 1.90772818 -0.40668549
N -0.48376068 2.73971770 -0.79526017
C -2.03045647 -0.98107084 -0.00874423
N -0.79777064 -0.71957839 -0.02651651
H 0.87738135 -2.06876706 0.97628690
H 1.95987314 1.18459485 0.25723645
H -2.33940053 -1.38971015 -0.98891981
