11

N -0.38522083 -1.8094481 -0.025640182
C -0.24976316 -0.35920247 -0.0785986
C 1.0028617 -0.03308713 0.42938346
N -1.0747716 0.58403736 -0.5017687
C 0.9170494 1.3472441 0.28697136
N -0.3093016 1.6593286 -0.2601961
H 1.6017174 2.1560822 0.5165913
H -0.44778243 -2.275165 -0.93022025
H -1.1011281 -2.1604574 0.6087404
H 0.72629756 -1.6776993 0.44234356
H -0.67995834 2.5683677 -0.4876064
