11

C -1.28025490 -0.14295185 1.33286223
N 0.04219951 -0.73691131 -0.45272398
C 1.78830721 -0.13449598 -1.69260899
C -2.13871369 0.61890218 1.95384815
N 1.18402969 -0.27619125 -0.37322182
N -0.49893538 -0.93984444 0.82797886
H -1.79051522 1.40101251 2.62104189
H -3.20398636 0.48492238 1.79635977
H 2.68826851 -0.75481331 -1.70553269
H 1.11013624 -0.42708148 -2.50178046
H 2.09946447 0.90745259 -1.80622302
