11

C -1.3061422 -0.787117 0.68034524
N -0.12848638 -0.05333485 0.26575312
C 0.39715993 0.100334555 -0.97182995
C 1.4880943 0.9039921 -0.7684224
N 1.5681905 1.1931499 0.55642974
N 0.5917036 0.61579144 1.1751214
H -1.3631227 -0.71051556 1.7670912
H -2.2027485 -0.35238385 0.23317333
H -1.22196 -1.8368281 0.38993326
H -0.030990478 -0.3588233 -1.8509165
H 2.208302 1.2857347 -1.4766785
