11

O 0.9076652 -0.9098422 -1.0246487
C -0.072240636 -1.0280622 1.1257298
N -0.7149438 0.8307074 -0.59330946
C 0.82859284 -0.40680078 0.21836282
C -0.59182006 -0.59195775 -0.3482744
C 0.59655344 1.1160222 0.064776294
H -0.02425553 -2.1184692 0.99615663
H 1.2945173 1.594182 -0.6221111
H -1.4870298 1.203058 -0.051247086
H 0.506923 1.6493053 1.0119455
H -1.2439618 -1.3381424 -0.7773802
