10

O 1.8003349 -0.1863602 -0.54706216
C 0.46768785 -0.089091726 -0.19498877
C 0.20909101 0.25912288 1.2072334
N -0.9486387 0.5679319 1.6271787
N -1.3816457 -0.5539777 -1.8700949
C -0.5044281 -0.23470782 -1.0780703
H -0.91409606 0.7470863 2.6293294
H -1.7557589 0.19987488 -2.4423964
H 1.9104824 -0.9283486 -1.1533672
H 1.1169711 0.21847011 1.8222384
