10

O -0.38218638 1.6369988 -1.2212319
C -0.16956307 0.6067139 -0.3559278
C 0.51434445 -0.5733244 -0.5338825
N 0.40850016 -1.2363281 0.651022
N -0.28753984 -0.56901675 1.5697513
C -0.6490386 0.55814475 0.97180474
H -0.02987529 1.4041605 -2.0880673
H 1.0496689 -0.9838359 -1.3772045
H 0.78456974 -2.1386256 0.88496244
H -1.23888 1.2951127 1.4987733
