10

O -1.7478362 -0.92509437 -0.32681033
C -0.37380576 1.0776641 -0.5568322
C 0.65254253 -0.72523487 0.37112048
N 0.39733338 2.0385668 -0.68343556
N 1.6873484 0.024502281 0.4316489
C -0.5957814 -0.20119938 -0.15813981
H 2.493548 -0.4612105 0.8065217
H -2.1841903 -1.0173978 0.5282375
H 0.61268795 -1.7747179 0.68540025
H -0.9418465 1.9641216 -1.0977108
