11

N -0.6942766 0.40562212 1.9849346
C 0.020622952 -0.26278698 1.0156755
O 0.7334326 -1.2160846 1.24539
N -0.12294496 0.2854506 -0.25258285
C 0.52573746 -0.23048657 -1.3652608
N 0.40654266 0.35466442 -2.4872072
H -0.7281863 -0.088518195 2.8646593
H -1.5487932 0.8763427 1.7270429
H -0.6229875 1.1532435 -0.39465046
H 1.0960813 -1.1327829 -1.141934
H 0.9347717 -0.1446639 -3.1960666
