11

C -2.035219 -0.42695442 -1.0852379
N 0.5096254 0.7066429 0.89946616
C 1.6203728 -0.11416945 0.39794615
O -0.8060182 -0.17906179 -0.5469466
C -0.74470454 0.73630923 0.48969403
O -3.0865211 -0.024093065 -0.69515115
H -1.8915888 -1.0881741 -1.9556367
H 1.3765324 -1.1763568 0.476525
H 0.7206943 1.337946 1.6568967
H 1.8355876 0.12850268 -0.64516383
H 2.501239 0.09940876 1.0076082
