11

C -2.25035876 -0.43590076 -0.49801978
N 0.74234553 0.44404792 0.90545358
C -0.57414225 0.35513764 0.93849577
O -0.93220920 -0.14164310 -0.30298892
C 1.65952041 0.09032448 -0.18664760
O -3.12066952 -0.41509584 0.31550797
H 1.47029237 0.71419464 -1.06315452
H -2.37728540 -0.71467478 -1.55708061
H 1.16163683 0.80661912 1.74779059
H 1.53966104 -0.96044815 -0.46121157
H 2.68120890 0.25743870 0.16185519
