9

O -1.324336 -0.6611549 0.88224757
C -0.59871155 0.2967526 0.15567026
C 0.8611962 0.19332753 0.33825418
C 2.0454113 0.07634027 0.5077266
C -0.93034184 0.23411764 -1.2938583
N -1.2038285 0.15283526 -2.4116917
H -1.0049536 -1.5383879 0.63329095
H -0.9435721 1.2657592 0.5301644
H 3.099136 -0.019589726 0.65819615
