12

O 0.22445578 -0.23624355 -1.66185144
C 0.27438308 0.73152270 -0.65135283
C 0.72706354 0.19216805 0.68404522
O 0.98245874 -1.18262570 0.72088147
C -0.72642196 0.53526105 0.46024385
O -1.57525624 -0.56363611 0.26753242
H -1.19120799 1.38848251 0.94655411
H 0.57350525 1.72403345 -0.97703277
H -0.66794897 -0.61879958 -1.59390787
H 1.14863103 -1.43509119 -0.20278922
H 1.33542572 0.78984527 1.35669406
H -1.10508804 -1.32491652 0.65098285
