11

O -2.2975297 -0.6252126 -0.42569658
C -1.1538849 -0.37451676 -0.16359173
C 0.11318436 -1.2119197 0.04093333
N 0.758214 -0.049407482 0.7302114
C 0.85783935 0.98145443 -0.28273508
C -0.44280732 0.81032354 0.41380206
H -0.06010815 -2.0385344 0.73407227
H 0.6564872 -1.5750165 -0.83730316
H 0.9625991 0.6951359 -1.3280358
H 1.4529526 1.8382531 0.021847172
H -0.8469468 1.5494405 1.0964965
