11

O -1.0524995 2.1117535 0.034219448
C -0.5153257 -0.15711448 0.9986418
C -0.5922254 1.0093707 -0.0043415553
N -0.10275494 -1.0123588 -0.15651125
C 1.3605722 -0.30193594 -0.73104167
C -0.007159853 0.1319602 -1.0955982
H -1.5032182 -0.42824355 1.3823824
H 1.7332183 0.25153488 0.14454612
H 0.21351956 -0.1246003 1.8116667
H 0.866282 -1.5588841 -0.27648157
H -0.4004081 0.07851788 -2.1074822
