11

C 0.8409254 -0.50546306 -1.3530436
C -0.25121996 -0.5350602 1.248648
C -1.1779115 1.6371354 0.75617015
O 0.06637263 0.58499146 -0.87370646
C -0.405605 0.46883857 0.38145322
N -1.7994637 2.557872 1.0780386
H 0.25037462 -1.4275075 -1.3581243
H 0.32050014 -1.4232907 1.0032012
H 1.7370932 -0.6432177 -0.73873353
H -0.7052314 -0.4750631 2.2271636
H 1.1241655 -0.23923495 -2.3710673
