9

N -1.0795677 -0.13098374 0.90011656
C -0.017546298 -0.88115984 0.537962
O 0.26855254 -1.970611 0.9730608
C 1.8529001 -0.21271 -1.3202367
C 0.75360006 1.0792793 -1.1978375
C 0.8597881 -0.26254267 -0.5005885
N 0.34509608 2.1245904 -1.4952853
H -1.6965973 -0.5155884 1.6013354
H -1.2862256 0.7697259 0.50147307
