9

N 0.00272887 0.35451407 1.31511439
C -0.32153927 0.29796382 -2.30380622
O -0.67064396 2.03004501 -0.06434847
C -0.07373496 -0.05386108 -1.05287086
C -0.28470903 0.89808275 0.11551015
C 0.38729377 -1.39574599 -0.88103421
N 0.75968944 -2.47331597 -0.68710082
H -0.11959499 0.93853830 2.13104870
H 0.32050999 -0.59622078 1.42748741
