11

O 0.6614062 -0.657892 -1.152199
C 1.1461908 -0.33571067 0.050589003
C -0.6727662 0.34582222 0.42558625
O 1.8723546 0.7193187 0.18236722
C -0.75480753 -0.25066382 -0.96388096
N 0.27345845 -0.6190817 1.0543659
H -1.60363 0.546673 0.96410567
H -1.3471555 -1.1704233 -1.0385501
H 0.63827163 -0.30155525 1.9447365
H 0.8318929 1.2716029 0.2815653
H -1.0452152 0.45190972 -1.7486857
