11

O -2.2156305 0.2625438 -1.4020175
C 0.2704371 -0.968207 0.61597615
C -1.2439518 0.09193634 -0.7168543
O -0.87728876 -1.1184865 -0.2186369
C 0.8667112 0.38723147 0.21264637
N -0.32947966 1.0328928 -0.2853366
H -0.05241529 -0.9694588 1.6614445
H -0.29090485 1.8941532 -0.8057142
H 1.63247 0.27861133 -0.5648529
H 0.94228894 -1.808521 0.43938887
H 1.2977636 0.91730434 1.0639565
