11

N 1.0359124 -0.015763916 -1.551812
C 0.28063285 -0.026356077 -0.37499103
C -0.37814122 0.9676462 0.32072785
C -0.8773221 0.31561506 1.4712284
N -0.5744734 -0.96858925 1.4947904
N 0.135568 -1.1565605 0.3582155
H 1.0295624 0.8982752 -1.9846557
H 0.7373342 -0.7065164 -2.229055
H -0.48396176 2.0049725 0.034678627
H -1.4560335 0.74434584 2.2789993
H 0.5509223 -2.0570688 0.18187405
