11

N 0.66485645 0.28138659 -0.26331134
C -0.06520685 -0.81436518 -0.41316096
C -1.26847639 1.37407183 0.63748375
C -0.57356597 1.04996460 1.65833601
N 0.19529452 1.45096844 0.45073165
N 0.52379805 -1.75814753 -1.16479132
H 1.58384391 0.44801798 -0.65518087
H 1.41985938 -1.66534978 -1.63262064
H -2.14639701 1.55071619 0.04262508
H -0.37021950 0.70906022 2.65875936
H 0.03621357 -2.62632351 -1.31887031
