11

O -0.20763908 -1.5812541 -0.5868963
C -1.2197938 0.47166482 -0.8466233
C -0.7130415 -0.54643047 0.05088009
C 0.1498248 0.6132735 -0.8142262
C 0.7586434 0.6903735 0.61704904
N -0.22895575 -0.14637917 1.3344039
H 0.22420177 -0.94613564 1.7711346
H 1.7706451 0.28558472 0.62444276
H 0.41458014 -0.73731863 -1.3577585
H 0.76532435 1.7243767 0.97563785
H -1.7137898 0.17224465 -1.768044
