10

N 1.98682321 1.16646511 -2.04259948
C -0.91048791 -0.76451691 0.08988041
C -0.03946458 0.36028653 0.72233545
C 1.29704613 0.06886983 0.16877951
C 1.60498510 0.70496894 -1.03988923
H -0.98579501 -0.65069317 -0.99413888
H -0.50709666 -1.75358445 0.31863197
H -0.05877878 0.22672152 1.80764779
H -1.91455843 -0.69038063 0.51514621
H -0.47267326 1.33186310 0.45420659
