10

N -0.6167062 -0.71596783 -2.6708713
C -0.44608516 0.5665464 0.699858
C 0.77381647 0.2042688 -0.6731388
C -0.04396756 -0.32323676 -1.7412282
C 0.61565053 -0.5323216 0.59769905
H -0.2669209 1.2632034 1.5183343
H -0.16949679 1.2832204 -0.19230536
H 1.4333813 -0.43039817 1.3092741
H -1.4675549 0.22010577 0.58027136
H 0.18788329 -1.5354203 0.57210696
