11

N 1.655798 -0.9875867 0.03042798
C 0.5270814 -1.4961843 0.27014342
O -0.6276286 -0.78099495 0.2904599
N -0.7402286 1.0550821 -1.0364903
C -0.536308 0.60335374 0.24531126
N -0.34466228 1.229912 1.324084
H 0.27773908 -2.5470312 0.45599216
H -1.1509082 0.39732695 -1.6801445
H -1.0726968 2.0030818 -1.1334147
H 2.3673742 -1.7100252 0.07264674
H -0.35555986 2.2330658 1.160984
