11

O 0.82726127 -0.97788405 -0.5804648
C -0.00038466306 1.1402205 -0.061516657
C -0.40050846 0.018673902 -0.9885037
N 0.14186707 0.32826912 1.1616918
C -0.07742265 -0.9431113 0.67262965
O -0.45264462 -1.975659 1.1408976
H -0.46297318 0.54501987 1.9405819
H -0.8294938 1.8486016 0.01556522
H -0.26459497 0.1684656 -2.0647686
H 0.5891901 -1.839173 -0.97089416
H 0.92970395 1.686577 -0.26521853
