11

O 1.3671383 1.1990882 -0.4242559
C 0.6954177 0.21628074 0.30999818
C -0.7952305 0.52567494 0.5852748
N -1.1137614 -0.7112867 -0.13050021
C 0.16791144 -0.9683787 -0.52449524
O 0.66821194 -1.7681304 -1.275226
H 1.9796698 0.74599105 -1.018917
H 1.2495486 -0.09614972 1.2049549
H -1.1014893 0.52660793 1.6329038
H -1.1276548 1.4349536 0.07997187
H -1.9897616 -1.1046512 -0.4397091
