11

O -0.11485355 -0.32094100 -1.30290311
C 0.52525475 0.71043251 0.72348594
C -1.03343971 -0.74549575 -0.30411116
N -0.66266388 -0.13069936 0.82098867
C 1.36010518 0.03836520 -0.37261343
O -1.92114300 -1.50931909 -0.54580372
H 1.72824538 0.85420441 -1.01792046
H 1.09559957 0.65234491 1.65470747
H -1.24500088 -0.22133196 1.63590716
H 0.19736797 1.75585888 0.57750142
H 0.07052834 -1.08341902 -1.86923868
