10

O 0.1662256 2.5801256 0.22337732
C -0.015615656 -1.4897593 0.2961313
O -0.12639983 0.59089583 -0.7938013
C -0.06311058 1.9256951 -0.75537765
C -0.113221675 -2.6802788 0.1905668
C 0.11067336 -0.04712209 0.47333348
H -0.6162149 0.31934252 1.2058793
H -0.20055914 -3.7409296 0.088841036
H -0.25342846 2.3274462 -1.7615304
H 1.1116513 0.21458445 0.8325801
