10

O -0.87850744 -0.53705764 -0.2944599
C 1.3771487 1.6493325 -1.5184978
O -1.455628 -1.3989906 1.7255918
C -0.047518156 0.3800236 0.28123277
C -1.5582161 -1.3808615 0.53447753
C 0.9315304 1.016148 -0.46998036
H -0.120399214 0.46063504 1.3614107
H 2.4147475 1.5005232 -1.8286777
H 1.5470097 0.33150655 0.27895075
H -2.2101667 -2.021259 -0.0700479
