11

C -0.34653428 -0.26244697 0.9986787
C -0.35012317 0.5759662 -0.7833257
O -1.3376204 0.21836154 0.105790496
C 0.63037336 0.75631946 0.35451922
C 0.10817075 -1.6676741 0.40560505
N 0.25519744 -1.5571364 -0.8121488
H -0.65837693 -0.23858337 2.0420177
H 0.1447722 -1.2624102 -1.7704079
H 0.5041759 1.7270471 0.84483916
H 1.6803478 0.49089733 0.22941697
H -0.6303827 1.2196593 -1.6149846
