11

C -0.25983227 -0.36046926 -1.03309662
C -0.08079511 0.74065693 0.52001689
O -0.56925660 1.05671727 -0.76686248
C 1.27415151 -0.43396426 -0.86517167
C -0.74786877 -0.64626766 0.41524143
N 1.32370276 0.35764591 0.19228206
H -0.21615641 1.49767541 1.29147426
H -0.73420266 -0.75197784 -1.92882256
H -1.83317628 -0.59706326 0.50473397
H 2.15532509 0.61678031 0.70024462
H -0.31189105 -1.47973320 0.96996001
