11

C -0.13202733 -0.9187903 -0.6349274
C -0.15227059 0.8952193 -0.030233944
O -0.49217042 0.35293758 -1.2891803
C 1.3728646 -0.75412124 -0.3268837
C -0.7811399 -0.33681414 0.65251195
N 1.2865905 0.5087819 0.053829852
H -0.40002748 -0.645728 1.6281039
H -0.49264222 -1.7992622 -1.1596724
H 2.0492268 1.0838228 0.37707302
H -1.8701078 -0.33306947 0.6029411
H -0.3882965 1.9470234 0.12643778
