10

N 0.98079735 -0.6384228 0.08371626
C -0.89878523 0.5975948 0.115028046
C -0.1368037 0.8460771 -1.0449266
C 1.0565001 0.10753315 -1.1160986
C -0.23494995 -0.32784283 0.8942542
H -1.8630548 1.0223137 0.36802712
H 1.788388 -1.0828207 0.5007324
H -0.31205946 -0.641735 1.924437
H 0.070592456 -1.4082781 0.10481211
H -0.45062494 1.5255809 -1.829982
