10

N 0.20981628 -0.40596103 -1.15303058
C -0.98960518 -0.89782532 -0.88806986
C 0.86146419 0.38538722 -0.10821115
C -0.18812037 0.33322715 0.95621899
C -1.22387347 -0.39193817 0.50362901
H 0.66070251 -0.57448123 -2.04132616
H 1.80703151 -0.07124748 0.20775257
H -0.07472084 0.82080613 1.91879051
H 1.07175230 1.40712951 -0.44671471
H -2.13444657 -0.60509690 1.05096145
