10

N -0.15784013 -0.75139207 -0.8439267
C 1.0606973 -0.28701457 -0.41849464
C 0.8365301 0.5962538 0.60839826
C -0.57123303 0.66637504 0.80900526
C -1.1580515 -0.17681022 -0.10298083
H -0.29768577 -1.4129745 -1.5881768
H 1.9768618 -0.6239631 -0.8806455
H 1.5926366 1.1360049 1.1606237
H -1.0866538 1.2697488 1.542726
H -2.1952612 -0.4162282 -0.28652868
