10

N -0.05225905 0.016570922 -1.2390727
C -0.48286653 -1.1691968 0.55221623
C 0.034959048 -0.025523555 1.0290339
C -0.55081624 -1.1733749 -0.9454468
C 0.3709112 0.8656268 -0.12437285
H 0.20542723 0.25943875 2.0619297
H -0.18260969 1.8121845 -0.10421865
H 0.03734285 0.3252935 -2.1968975
H -0.8213322 -2.007946 1.148952
H 1.4412434 1.0969269 -0.18212341
