11

N 0.3255242 2.9274774 0.4499935
C -0.20933966 1.9103551 0.35216364
C -0.85564286 0.60025525 0.20473902
C 0.009599743 -0.3553109 -0.5970305
C 0.915063 -1.2921549 0.066511326
O -0.3304077 -1.7215497 -0.46875957
H -1.8248506 0.73599124 -0.28771558
H -1.048854 0.17345144 1.1943269
H 0.24071743 -0.032946117 -1.6121228
H 1.800093 -1.6521097 -0.45630476
H 0.9780974 -1.2934592 1.1541989
