10

N -1.0621076 -0.62873095 -0.1846078
C -0.48251048 -0.8934234 0.98611504
C 0.63213134 -0.06465378 1.1662147
N 0.7105473 0.79327625 0.008180187
C -0.31227505 0.3374771 -0.7356637
C -0.5577118 0.8477832 -2.056297
N -0.7523559 1.2571634 -3.1182237
H 1.2043768 0.17942294 2.0519986
H 1.4896032 -0.18309653 0.21960074
H -0.8696978 -1.6452181 1.6626832
