11

O 1.1378921 1.7578747 -1.0787612
C 0.58972263 0.8317542 -0.5494854
C 0.43182313 0.4202905 0.8973917
N -0.96664804 0.08403122 1.1271458
C 0.20683064 -1.0106788 0.45136985
C 0.1179881 -0.5504431 -1.0331523
H -1.6055584 0.37806034 0.3899948
H -0.92392594 -1.0649157 1.2467628
H 0.87638795 -1.0242251 -1.6651586
H -0.8550265 -0.64346755 -1.5243645
H 0.9905143 0.8217193 1.738257
