11

O -2.4379425 -0.7134084 -0.1952632
C -1.5699832 -0.06523549 0.3496509
C 0.41609204 -1.1014433 -0.8330981
C -0.17497648 -0.079539634 -0.07102925
O 1.8457 0.1655389 0.6825932
C 0.83601075 0.973696 0.34019053
O 1.6281283 -1.3180547 -0.73654693
H -1.7900724 0.60893553 1.2020472
H 0.37209678 1.4558083 1.2247249
H 1.081194 1.7326555 -0.41913173
H -0.20624721 -1.6589527 -1.5441376
