11

O 1.60919165 -0.15810083 -1.24537512
C 0.46309192 0.64479055 -0.95377691
C -0.19516725 -0.04069293 0.20217479
C 0.57107744 -1.12582459 0.47056862
O 1.61375160 -1.25643691 -0.31595945
C -1.40368954 0.38143136 0.88772761
O -1.91043277 -0.19617311 1.83156053
H -0.16168301 0.68070504 -1.85633617
H 0.47460275 -1.89867856 1.22043188
H 0.80741942 1.66130129 -0.72141946
H -1.86816259 1.30767873 0.48040377
