10

N -0.32572174 -1.155142 -1.9369657
C -0.7255842 -0.09453758 0.21000105
C -0.8642587 -0.4097823 -1.1616291
C 0.8125775 -0.11538589 0.07172135
C 0.17592108 0.859255 1.0008463
H 0.6732469 -1.2755699 -1.0507677
H 0.071924314 0.6560699 2.0648317
H -1.1632149 -0.88153493 0.8226839
H 0.22078109 1.9185117 0.7566848
H 1.1243285 0.49811572 -0.7774066
