9

O 0.7548604 0.24680714 -2.0780017
C 0.26447925 0.11060242 -0.83706474
N 0.9881441 -0.31512997 0.17614971
N 0.07772864 -0.28322437 1.1812639
C -1.1050143 0.14879335 0.72162324
N -1.0275319 0.4116265 -0.566227
H 1.6850686 -0.013638422 -2.0550134
H 0.34474063 -0.5615009 2.1112437
H -1.9824754 0.25566417 1.3460265
