9

O 1.7912776 1.2207309 0.14693917
C 0.051813334 -1.7380149 -0.36397478
N 0.98712456 -0.9370662 -0.14581186
N -1.3326107 -0.19959486 -0.25115356
C 0.75556546 0.38615656 0.015651297
N -0.498498 0.75662446 0.08218088
H -2.2647684 0.009873204 0.0950113
H -0.93014073 -1.6204436 0.2622254
H 1.4402364 2.1217346 0.15893213
