10

O 1.8319296 -0.16275409 0.78232557
C 1.1363467 -0.81074303 0.034609195
C -0.11581643 -0.2653666 -0.5607934
C -1.0613409 0.38730338 0.3924105
N -0.29336318 1.1821414 -0.539504
H 1.3978982 -1.8500683 -0.24678469
H -0.5044577 -0.7809028 -1.4357247
H -2.1271777 0.32506037 0.18851432
H -0.77410954 0.392867 1.4419857
H 0.510091 1.5824623 -0.057038642
