10

O 1.17361827 1.05329940 -1.08185831
C -0.01451059 -0.02704866 0.66277664
C 0.80321333 1.06585609 0.07656052
C -1.43553930 -0.22305524 0.17035008
N -0.23466510 -1.06400448 -0.34036945
H -0.21398866 -2.02664248 -0.04081805
H 0.26793562 -0.85367852 -1.20343580
H -1.58624357 0.50037254 -0.64713206
H 0.24312428 -0.35643387 1.66714363
H 0.99705577 1.93133485 0.73678265
