11

N -1.9990838 -0.51665556 -1.9176878
C -1.576971 0.028659515 -0.99186337
C -1.0000565 0.6952681 0.19456936
O -0.31429604 -0.20665823 1.0269433
C 0.80479705 -0.8218552 0.43702126
C 1.854467 0.15756518 0.08312723
N 2.6561506 0.9398446 -0.19997536
H -1.8048792 1.1181716 0.79819566
H -0.3466755 1.5116123 -0.14366569
H 1.1965357 -1.5204318 1.178583
H 0.5300119 -1.3855207 -0.46524748
