11

N -1.59342510 0.15740494 -0.85880626
C -2.58281088 0.73965144 -0.61421495
C -0.36412678 -0.54832591 -1.04988234
O 0.11038097 -1.06706237 0.15645876
C 0.42684822 -0.11068110 1.13823778
C 1.51372982 0.79003366 0.69631020
N 2.35565669 1.48006372 0.31585906
H -0.44540861 0.49725129 1.41200558
H 0.35596835 0.13963877 -1.50986717
H 0.75646629 -0.67217969 2.01532230
H -0.53327905 -1.40579451 -1.70142259
