9

O -2.16059514 1.14948212 -0.76163455
C -1.19280974 0.58461829 -0.35096414
C 0.05903507 -0.65819108 1.12093278
N -1.08042066 -0.12835005 0.83197798
C 1.09637969 0.05124568 -0.71574702
N 1.22955664 -0.60381034 0.37534393
O -0.02413426 0.64312454 -1.14628215
H 0.14559300 -1.21666296 2.05184414
H 1.92739537 0.17854361 -1.40547091
