9

O -0.3780742 -1.1716008 -0.46104872
C -1.2766511 -0.40001738 0.31288582
C 0.8440128 -0.6933654 -0.7237784
N -0.787703 0.81293654 0.7711213
C 0.415644 1.1476417 0.4509429
N 1.3161556 0.42594185 -0.32185006
O -2.3645637 -0.8540151 0.49906358
H 0.79731715 2.102025 0.8107445
H 1.4338624 -1.3695464 -1.3380809
