10

O 0.03288458 -2.5505617 0.520645
C -0.23881043 -1.9936419 -0.5087286
O -0.2350954 -0.66925347 -0.6966553
C 0.13461502 0.09665911 0.46228266
C 0.10387982 1.5125027 0.11072115
C 0.08827567 2.6869657 -0.14213376
H -0.5315224 -2.491116 -1.4446929
H -0.56380105 -0.11893778 1.2773669
H 1.1353316 -0.20325787 0.7917894
H 0.07424265 3.7306416 -0.3705947
