10

O -0.91084504 -0.99517393 -0.20074156
C 0.2914742 -0.56223965 -0.6609023
O 1.2701275 -0.45690975 0.7442089
C -1.011434 0.07176101 0.80298203
C 0.42688736 0.52275413 0.4451905
C 0.47026914 1.0658562 -0.8787842
H 0.8675747 -1.1459793 -1.3715565
H 1.5149671 1.0874554 -1.2109376
H -1.1238161 -0.36660793 1.7940228
H -1.795205 0.779084 0.5365181
