10

O -0.34987438 -1.0389156 1.9165046
C -1.4741862 0.18166684 0.40305346
N 1.6848782 -0.31892243 -0.7846112
C 0.95498645 0.43819192 -0.010861889
C -0.38325837 0.7785375 -0.22009107
N -1.3737301 -0.89332026 1.2727256
H -2.4922857 0.5347576 0.2500006
H 2.6357844 -0.53616256 -0.5118937
H 1.3216828 -0.86739314 -1.5601842
H -0.52399737 1.7215599 -0.75464237
