9

O 1.3005784 -0.8558342 1.5261906
C 1.1434162 -0.84640545 0.33361217
N -0.56769824 1.0174162 0.48025608
C -1.2821877 0.086012594 -0.16133028
C 0.19314623 0.06704004 -0.3850085
O -2.3723567 -0.3328236 -0.40660173
H 1.7006154 -1.529908 -0.34109256
H 0.51312447 0.38021472 -1.3794526
H -0.6286383 2.0142875 0.3334269
