9

O -1.3011899 -0.06832488 -0.99319494
C -0.8979086 0.81020445 -0.19980465
N 0.58477974 -0.84302986 0.6396307
C 0.17033273 0.5633467 0.6680205
C 0.8024401 -0.8968312 -0.6304147
O 1.3010119 -1.0526279 -1.6571096
H -1.3512678 1.8140806 -0.18328297
H 0.71199125 1.234865 1.3182409
H -0.020189665 -1.5616829 1.037915
