9

O 1.7424936 0.5385046 -1.6432624
C 0.888365 0.35491243 -0.82020086
N 0.2657339 -0.81416255 -0.44251192
C -0.6712116 -0.556786 0.5573565
C -0.61522436 0.7592193 0.7832476
O 0.32400966 1.3371333 -0.03922677
H 0.48798484 -1.7012421 -0.85904086
H -1.2779449 -1.328059 1.0039216
H -1.144206 1.4104799 1.4597173
