10

O 1.33364728 -1.17984834 -0.46714343
C 0.27394147 1.00675647 -0.99135388
C 0.29946822 -0.26601770 -0.32779972
N -1.70493205 1.15951926 2.04637719
N -1.10636282 0.35063218 1.52899905
C -0.41864050 -0.56033663 0.93062550
N -0.45404873 0.13771236 -1.55338959
H 0.54454492 2.04478103 -1.14826312
H 1.63251682 -1.14618411 -1.38664406
H -0.40013449 -1.54701454 1.36859192
