10

O 0.45701605 -1.5177786 0.93614346
C -0.7082512 0.48897403 0.783955
C 0.11329487 -0.5018706 0.056475263
N -0.21783493 -0.8720869 -1.3528328
N -0.85440606 2.7764862 0.0072447057
C 0.8439518 -0.21574189 -1.1456814
N -0.7913164 1.7082475 0.37487134
H 0.7688538 -2.2676177 0.41037142
H -1.2718575 0.2126205 1.6624008
H 1.6605496 0.1887673 -1.732948
