10

O 0.9906222 0.5073985 -1.7948558
C 0.3844912 0.18280943 -0.6554065
C 1.1492338 -0.2794009 0.43325984
N 0.5669482 -0.60563093 1.5679513
N -0.7608408 -0.49402627 1.6801447
C -1.4284987 -0.054915298 0.6261977
N -0.9226861 0.29844734 -0.5631247
H 0.2994388 0.79892564 -2.4117231
H 2.226948 -0.38058403 0.37468347
H -2.5056565 0.026976492 0.74287295
