11

N -0.68085799 0.48418251 0.48455373
C -1.20817791 0.24056781 -0.67012374
C 0.55003397 -0.15733530 0.40223723
O -2.40009678 0.63269613 -1.11492714
C 0.68257674 -0.74166588 -0.81109149
O -0.49437000 -0.47373299 -1.51817776
N 1.38450978 -0.15522766 1.50927792
H 2.36721502 -0.23661616 1.29972588
H -2.81041113 1.12518598 -0.38958149
H 1.18715235 0.62018011 2.12564199
H 1.42242604 -1.33823445 -1.31753513
