12

N 0.86004245 -1.7389059 0.56405276
C 0.26859656 -0.54593205 0.16903873
C 0.9283487 0.3935355 -0.62501174
N 0.34526113 1.5079204 -1.0602348
C -0.92115575 1.6979918 -0.69851536
N -1.6518499 0.88226366 0.057981268
C -1.0544356 -0.22541182 0.48576298
H 1.868181 -1.7359763 0.604103
H 0.44724244 -2.1806123 1.3726448
H 1.9652451 0.23548622 -0.9217861
H -1.4045132 2.604071 -1.0535706
H -1.6509628 -0.8944302 1.1055354
