12

N -0.88128376 1.7070556 0.16218434
C -0.6134481 1.5012095 -1.1235355
C -0.61791193 0.49475974 0.7333837
N -0.3498366 0.26712275 -1.5448742
C 0.50669193 -0.434489 0.28475413
N 1.4835432 -1.1686822 0.7762212
C -0.65539527 -0.6382136 -0.44526625
H -0.86925876 0.33941013 1.7859384
H 2.224208 -0.7395743 1.3143953
H 1.6236519 -2.1246083 0.47356582
H -1.2636632 -1.5329157 -0.5885236
H -0.58729756 2.3289256 -1.8282431
