12

N -1.200935 -1.4384751 0.23525587
C 0.59830356 0.24339439 0.99803805
C 1.2116678 1.0205092 -0.101177715
N 0.2224792 1.6616262 -0.959453
C -0.37799013 -0.30559564 0.01665912
N 1.1020731 -0.46312144 -0.17661455
C -0.75625885 0.8418279 -0.8795882
H 2.2119842 1.4413831 -0.06009998
H -1.3753686 -1.9345609 -0.63245684
H -0.77212024 -2.077349 0.8905536
H -1.7171339 1.0033567 -1.3567603
H 0.85329854 0.007004561 2.025644
