12

N -0.25632545 -1.5584792 0.74356115
C 1.0448861 0.580319 0.18273649
C -0.89559835 0.39892578 -0.72721297
O 0.60339695 1.5631372 -0.7170209
C 0.13329226 -0.6029422 -0.24781278
N -1.8212521 1.153855 -0.67293775
H 0.8730569 0.82696825 1.2428354
H -0.7827218 1.8458574 -0.5868488
H -0.79594404 -2.3243122 0.361845
H 0.56935257 -1.1038789 -1.1150485
H 2.1063464 0.3457537 0.03668956
H -0.77848935 -1.1252038 1.499214
