12

N -0.7486802 -1.0228901 -1.0292754
C -0.23494428 -0.63576514 0.27905017
C 0.56882775 0.66525584 0.08402207
O -0.16834088 1.5768194 -0.6776916
C 0.89126855 1.260435 1.3937862
N 1.1538249 1.682824 2.4360275
H -0.0451231 -1.5285745 -1.5585481
H -1.5575014 -1.6215066 -0.9459926
H -1.0892432 -0.41382575 0.92954487
H 0.3870457 -1.3936763 0.771628
H 1.5266738 0.42392403 -0.40512368
H -0.6838077 1.0069796 -1.2774272
