10

O -1.4463166 -1.3198986 -1.0977603
C 0.43683562 -0.2118069 -0.11143747
C -0.74565583 -1.1802169 -0.1273027
O 0.14467557 2.0628893 0.47886547
C -0.106677204 1.1919353 -0.3194599
O 1.1506301 -0.3057732 1.0767161
H 1.1432594 0.5812993 1.4736362
H -0.9012747 -1.720508 0.8284015
H -0.73762894 1.3478603 -1.2125108
H 1.0621526 -0.44578063 -0.98914796
