10

O -0.56717336 -1.8791208 -0.78718746
C 0.21097755 -0.99034506 -0.046251856
C -0.3148846 0.4206358 -0.1472006
O -1.2910118 0.69410956 -0.8138599
C 0.4050423 1.5251323 0.60978526
O 1.3805234 1.316376 1.2828182
H -1.2650629 -1.3573959 -1.2070718
H 0.23724991 -1.2694663 1.0184608
H 1.2578313 -0.9864675 -0.38949487
H -0.053491786 2.5265422 0.4800024
