10

O 1.3209656 -0.39378583 -0.61858684
C -1.1858679 -0.50701964 -0.8505179
C -0.047850728 -0.214633 0.0014031862
O 1.2127186 1.2708353 1.2040409
C 0.085367054 0.8061512 0.9909799
O -2.3279142 -0.36588132 -0.46408448
H 0.88485736 -1.1605344 0.13854273
H 1.8110073 0.3088989 -0.05767124
H -0.93352324 -0.880174 -1.8625396
H -0.8197598 1.1361427 1.5184335
