11

O 1.9126151 0.9212635 -0.3732681
C -0.3895293 0.26922336 0.39383316
N 0.10287926 -0.9115052 -0.48007715
C 0.7807493 0.7565379 -0.71212924
C 0.22919564 -0.89870006 1.0065527
C -1.3263855 1.2499046 0.4036076
H -0.6709411 -1.4305726 -0.8812214
H 1.2632903 -0.87454146 1.347124
H -1.7522857 1.4232672 -0.6000607
H -0.43422034 -1.5797548 1.5318192
H 0.28463235 1.0748775 -1.6361802
