11

O -2.2191796 0.19631277 0.32733735
C -1.1628762 0.47013137 0.83295757
N 0.15087597 -1.3934932 -0.20593528
C 0.14424686 -0.40018776 -1.2008727
C 0.17060277 -0.0014843536 0.31193054
C 1.4281195 0.5774639 0.58652395
H 1.2623274 1.5273916 1.1389425
H -1.0925494 1.1263435 1.7270746
H 1.1110798 -1.7295899 -0.093666725
H 1.0340687 -0.20021227 -1.7881792
H -0.8267161 -0.17267571 -1.6361125
