11

O 1.7501595 -0.92015684 -1.8314424
C 0.7311936 -0.26827255 -1.9177054
N -0.031245708 0.08742874 -0.85461986
C 0.34085253 -0.3210059 0.49044058
C -0.5775385 0.25286654 1.4712023
C -1.3429011 0.7265491 2.2664602
H 0.3261768 0.10065374 -2.8781962
H -0.88071054 0.6140426 -0.9933874
H 0.3315369 -1.4162232 0.565501
H 1.3670018 0.003498979 0.69722843
H -2.0145252 1.1406188 2.984519
