11

N 1.7137983 -0.1616777 -1.5436822
C 0.9331004 0.1789164 -0.60433084
O 1.1974138 1.2826554 0.12687713
N -0.22697055 -0.44877058 -0.18180831
C -1.067646 -0.042284608 0.8400249
N -2.107103 -0.7222229 1.0972447
H -2.6195514 -0.29702994 1.8662733
H 2.0149426 1.6376207 -0.25722364
H 1.4078714 -1.003803 -2.0243511
H -0.50921035 -1.2887281 -0.6663179
H -0.73664534 0.86532456 1.347294
