13

C 1.0766773 1.0007387 -0.6842926
C -0.80627066 -0.2894764 0.36364916
O 1.3305558 -1.2886009 -0.011594153
C 0.41634294 -0.36874947 -0.52973294
O -1.7618773 0.5215361 -0.15555635
N -0.82877207 -0.9384037 1.4481115
H 0.9406891 -1.6326514 0.80644447
H 0.07554522 -0.7076328 -1.519069
H -1.6777506 -0.84459 1.9968013
H 1.9754769 0.89607155 -1.2973667
H -2.5152857 0.55071735 0.44877806
H 1.373383 1.3859092 0.29583767
H 0.4012864 1.7151316 -1.1620102
