10

N -0.15741959 -0.7518379 -0.84404975
C 1.06127 -0.2870769 -0.41916722
C 0.8363749 0.5964519 0.6079708
C -0.57225823 0.665769 0.8096235
C -1.1572193 -0.17759888 -0.10252721
H -0.2970919 -1.4143003 -1.5874628
H 1.9775089 -0.6230959 -0.882107
H 1.5916042 1.1384355 1.1600684
H -1.087731 1.2696491 1.5435294
H -2.1950376 -0.41639552 -0.28587812
