10

N -0.88365495 -0.9333127 0.36480716
C 0.25155157 0.48759067 -1.0099053
C 0.2517869 -0.37219515 1.0592078
C 0.9524439 0.48132727 0.19535054
C -0.86112154 -0.33930847 -0.84829044
H 0.57381594 -0.83115804 1.9856309
H -0.9760501 -0.05138583 1.2635033
H -1.6700594 -0.5158853 -1.5456728
H 0.50117844 1.0546228 -1.8984284
H 1.8601092 1.0197049 0.43379712
