10

N -1.38844714 0.24117656 0.01832443
C 0.85999383 -0.45369344 -0.28172286
C 0.82901272 0.54979661 0.60702351
C -0.58655016 0.93088600 0.74696471
C -0.55569635 -0.70955104 -0.70910748
H -0.70025096 -0.56829508 -1.78802032
H 1.72717265 -0.99269005 -0.64368423
H 1.65676599 1.00948011 1.13246983
H -0.95098775 1.72190726 1.39906511
H -0.89101245 -1.72901682 -0.48131269
