11

C 0.60098875 0.21236873 -0.34832463
N -0.1975083 0.78830147 0.6501713
C 1.2324482 0.64641 -1.4312044
O -1.6827677 -1.1123999 0.9846808
C -0.43425804 -0.57159734 1.1279374
O 0.5275023 -1.0654014 0.17241366
H 1.8035178 -0.042715173 -2.038802
H -1.8911275 -1.1419281 0.038562115
H 1.176378 1.6917344 -1.7031319
H -0.1321794 -0.74702257 2.1612556
H -1.002994 1.3422499 0.3864417
