11

C -1.4688636 0.7952468 -0.44821954
N -0.48119405 -0.08805574 0.12912545
C 0.84013057 0.02713133 -0.12398592
O 1.3857006 0.8420382 -0.8400667
C 1.6726496 -1.023889 0.6065317
O 1.1945953 -1.8613852 1.3243058
H -0.9493405 1.5170596 -1.078415
H -2.181377 0.23289187 -1.0598282
H -2.0162225 1.3289057 0.3348617
H -0.75213355 -0.83547354 0.75147617
H 2.756055 -0.93447006 0.4042145
