10

O -1.67942734 0.70149076 -0.52738588
C 0.46091468 1.01421918 0.45438051
C -0.45323246 0.23724409 -0.09651746
N 0.91616234 -1.72877311 -0.15695077
C -0.22197214 -1.19397678 -0.33322775
N 1.21229210 1.72074067 1.12178835
H 1.93912859 2.19750767 0.59041180
H -1.91486748 1.49863671 -0.04121276
H -1.12527615 -1.71912941 -0.66737222
H 0.86627819 -2.72795951 -0.34391382
