10

O 0.30658135 -1.5759438 1.2344155
C 0.60231805 -0.7058726 -0.027716387
C -0.327086 0.3565787 0.04376773
O 0.2766683 1.1903013 -2.1137927
C -0.3859744 1.3258102 -1.1169302
O -1.063068 0.50518966 1.0356047
H 1.2491128 -0.9402148 1.1456383
H -1.1005169 2.1510394 -0.9487267
H 0.8433009 -1.3102926 -0.8883881
H -0.40133634 -0.9965955 1.6361277
