9

O 0.77571225 1.0762836 0.249285
C 0.8592842 0.41473845 -0.88428175
N -0.045913048 -0.52397794 -1.0470676
C -0.30555224 0.49911246 1.0560596
C -0.7782132 -0.54868954 0.21294759
O -0.5607436 0.94852966 2.138343
H 1.6408758 0.66614133 -1.5885328
H 0.1300341 -1.4574255 -0.41584998
H -1.7154843 -1.0747123 0.27909687
