10

C 0.38553667 2.0511074 1.4989011
C 0.18127596 1.0915304 0.805539
C -0.058251835 -0.044447232 -0.020019243
C -1.2056384 -0.7215613 -0.3726298
N -0.8671103 -1.7428228 -1.1995957
N 0.41494465 -1.7398111 -1.380979
N 0.9140963 -0.7223434 -0.6769388
H 0.55620426 2.9067447 2.117603
H -2.2276795 -0.5329305 -0.084234424
H 1.9066224 -0.5454662 -0.6876463
