10

C 0.035732135 0.0839256 -0.13109009
C 1.5281193 1.9661435 -1.1926048
C 0.8386608 1.1055006 -0.72534066
C 0.093884915 -0.43488708 1.1733755
N -1.4148405 -1.3721917 0.10465258
N -0.8459847 -1.363805 1.2954048
N -0.94359934 -0.5390612 -0.79328954
H 0.7502797 -0.18229951 1.9911602
H -2.1804829 -1.9938684 -0.10124712
H 2.1382303 2.7305431 -1.6210208
