11

N -1.2661047 -0.40491638 1.3168647
C 1.5444713 -0.10116014 -0.91502106
C -0.33306944 0.045483127 0.36323184
O 0.41049874 0.5173153 -1.6710445
C -0.63829046 0.5356776 -0.89535004
O 2.5925844 -0.20970072 -1.4796114
N 1.0882443 -0.413652 0.3181987
H -1.5796894 0.9030411 -1.2843574
H -0.9365881 -0.24624309 2.2627475
H 0.53304505 0.77846247 0.776773
H -1.4151013 -1.4043074 1.2075689
