11

N 0.9493846 1.145095 1.1217078
C 0.11987158 0.32408574 0.3585411
C -1.2035612 0.12672544 0.31267643
O -1.5109375 -0.7315893 -0.7362592
C -0.3479419 -1.0900319 -1.3585272
O -0.27513224 -1.8049523 -2.3214521
N 0.66249466 -0.46944252 -0.6544416
H 1.6183764 0.6211957 1.6741688
H 0.42193356 1.760242 1.7266954
H -2.028049 0.4975908 0.90037906
H 1.593561 -0.3789187 -1.0234886
