11

O 2.2611673 -0.7906977 0.8390889
C -0.63745964 0.9237232 -0.20072833
N 0.7083284 0.8476539 0.31740254
C 0.044641137 -1.3025762 -0.0507654
C -0.97630525 -0.5299458 -0.4080087
C 1.1716386 -0.44293445 0.432337
H -1.9391555 -0.84561497 -0.79715765
H 1.2694124 1.639077 0.58329356
H -1.3291123 1.3977418 0.5078987
H -0.6884617 1.48537 -1.1435975
H 0.11530598 -2.3817968 -0.07976313
