11

O 0.28603524 0.18696853 2.51503032
C -0.35744703 0.55273074 -0.93093045
N -0.34177676 1.00510803 0.44038309
C 0.22169376 -0.83328410 -0.81053990
C 0.16198819 0.06830426 1.31336884
C 0.51533003 -1.10785843 0.45646394
H -1.37264297 0.52635280 -1.34795647
H 0.25583532 1.18777088 -1.58488717
H 0.35625192 -1.47675080 -1.67425815
H 0.94193618 -2.01278451 0.86837106
H -0.66720409 1.90344280 0.75495503
