11

O -0.68846476 -2.3024735 -0.21132864
C 0.5627761 0.98643994 0.43616882
N -0.78368974 -0.13314673 -0.9887767
C -0.3669883 -1.1396259 -0.13893172
C -0.22620936 1.1018482 -0.6342748
C 0.5593891 -0.45298854 0.87339175
H 0.16488019 -0.6013932 1.8847739
H 1.5472376 -0.9260148 0.84247583
H 1.1102842 1.7826706 0.9175239
H -1.4087404 -0.2942964 -1.7610488
H -0.47047472 1.9789801 -1.2199736
