11

O 1.2504367 -1.0478961 -0.19071597
C 0.13899744 0.85566705 -0.9284344
N -0.9316759 -0.18367976 -0.7993488
C 0.24366501 0.26038724 1.4771374
C 0.9087918 0.16472332 0.21833582
C -0.32325062 -0.7722515 0.37338603
H 0.6455637 0.7926732 -1.8911684
H -0.61726063 -1.7239442 0.7908126
H -0.18870734 1.8678908 -0.6941475
H -1.8205707 0.23447038 -0.542481
H 0.6940107 -0.44804046 2.1866243
