10

O 0.43728730 -0.09798875 -2.29377485
C -0.56480321 -0.20444117 -0.10466298
C 0.17793441 0.55100872 0.98310354
C 0.85616420 -0.58685343 1.16126173
O 0.24789401 -1.36469815 0.20329903
C -0.34618752 0.33705472 -1.49434284
H -1.62575428 -0.41397501 0.07715517
H -0.98146521 1.22698772 -1.70550716
H 0.16087638 1.55015669 1.38562031
H 1.63805410 -0.99725122 1.78784777
