10

N -0.00597927 -0.66397258 3.23933636
C -0.09094423 -0.43865551 2.11301967
C 0.88567982 0.31777294 -1.30288238
N 1.09487460 0.06556435 -0.01939745
C -0.62054001 0.24269651 -1.35388095
C -0.12293374 -0.15264665 0.70644389
N -1.15227714 -0.06252827 -0.02064313
H -1.04426165 1.18869529 -1.70948478
H -0.95153586 -0.52418327 -2.06639195
H 2.00791738 0.02725700 0.41388065
