12

C -0.00958233 0.89477377 1.83604669
C 0.01867047 -1.39912158 -1.57259942
N -0.00577663 0.05730074 0.64930210
C -0.01344158 0.65202152 -0.46227354
O -0.00754574 0.02379461 -1.64513435
H -0.85864932 -1.77310290 -1.03463649
H -0.88865645 0.65341573 2.44349535
H 0.87543474 0.66637802 2.43763449
H 0.01453954 -1.74678189 -2.60747455
H 0.92021676 -1.74027182 -1.05290422
H -0.02736935 1.73697417 -0.61475430
H -0.01783998 1.97462027 1.62329806
