12

C -0.35067967 -1.1057833 0.9787608
C -0.2587266 -0.6289716 -0.4685696
N -0.26168585 0.8199181 -0.5826275
C 0.87769103 1.5517128 -0.49233764
O 1.9959744 1.087035 -0.40449688
H -0.346931 -2.1988456 1.0218565
H -1.2718354 -0.7479128 1.4529122
H 0.50455874 -0.72962946 1.5487956
H -1.09516 -1.0142686 -1.0602238
H 0.6701823 -0.9831811 -0.92487603
H -1.1426557 1.3095206 -0.54003483
H 0.6792679 2.6404066 -0.529159
