11

O -1.51057676 0.32948877 0.30038706
C -0.76813141 -0.41356949 -0.64385566
N 1.32515356 -0.17147956 0.64805033
C 0.95490913 0.11576183 1.76262621
C 0.70706768 -0.03138971 -0.65017775
O 0.76304947 0.33703373 2.89781587
H -0.87459604 -1.45940242 -0.34365914
H -1.50124531 1.25959654 0.04369027
H -1.17140113 -0.30761597 -1.66183574
H 1.24716077 -0.66543141 -1.36190440
H 0.82861012 1.00700759 -0.99113732
