11

O -2.3861501 0.034534372 1.115465
C -1.2407063 -0.038664933 0.9659952
N -0.05268014 -0.53719527 1.2232676
C 0.34598675 0.54535884 -0.89068735
C 0.61558145 -0.78542465 -0.082993284
O -0.34693152 1.3608515 0.020637738
H 1.2862458 1.015275 -1.1990597
H 0.18599561 0.6959096 1.0794252
H 1.6709774 -0.9730988 0.1182353
H -0.26291203 0.34783748 -1.7812736
H 0.18459302 -1.6653832 -0.5690123
