11

N -0.72495712 -1.45180517 0.40154336
C -0.07705582 -0.25994264 0.21598747
C 0.01718586 0.44716191 -1.10034829
N 0.85827673 1.62050337 -0.82931132
N 1.19897990 1.60601182 0.37900713
C 0.65963308 0.48886557 1.06313954
H 0.87639331 0.35046582 2.11390901
H -0.88872081 -1.73919093 1.35545686
H -1.46775933 -1.68427562 -0.23732981
H 0.49761408 -0.16280715 -1.87386493
H -0.94958987 0.78501256 -1.48818958
