11

N -0.731091 -0.75769734 1.5610306
C -0.19434007 -0.13196817 0.42188823
C -0.1308515 -0.61164415 -0.87009615
N 0.40107325 0.3946173 -1.6196368
N 0.6920405 1.4830788 -0.90778947
C 0.3341505 1.1784205 0.3322167
H -0.21807304 -0.531574 2.402583
H -0.7740938 -1.7632189 1.4625694
H -0.42002484 -1.5587516 -1.3000231
H 0.583583 0.3941098 -2.6085963
H 0.45762703 1.9046273 1.1258533
