10

O -0.79611033 -1.7334367 -0.74651146
C -0.29893082 -0.58707756 -0.235547
C 0.8633138 0.12486477 -0.42273405
C 0.7111136 1.2356957 0.44497493
N -0.43201295 1.2126198 1.1032722
N -1.0373088 0.08510777 0.6703347
H -0.15997788 -2.0986671 -1.3717613
H 1.6882682 -0.11525673 -1.0770941
H 1.4035155 2.0502968 0.60707027
H -1.9418705 -0.17414685 1.0279957
