10

O -1.6071702 -1.1905112 0.36737627
C 1.0755268 1.0251002 0.081330605
C 0.41065443 0.14337844 0.9074575
C -0.50574225 -0.48315433 0.037278157
N -0.35250756 0.089089096 -1.2679284
N 0.6428265 0.96247846 -1.1978617
H 1.8836153 1.6988091 0.3365502
H 0.15785629 -1.0761846 -0.8612648
H 0.5298619 -0.043272547 1.9632946
H -2.2349212 -1.1257329 -0.36623254
