13

N -1.4037145 -0.97300386 0.30193475
C 0.061773743 -0.8910591 0.4768522
C 1.9391308 0.3665252 -0.63067335
N 3.0714307 0.63416624 -0.71787906
C 0.5635495 0.07586419 -0.56352377
N -0.22767635 1.3292478 -0.35117084
H 0.056421302 1.9318703 0.43136537
H -1.1765387 0.96081406 -0.15491799
H 0.22039255 -0.5574915 1.525203
H -1.5952107 -1.4748122 -0.5601146
H 0.5928069 -1.8447802 0.3634079
H -1.8437636 -1.4643978 1.069044
H -0.2586016 1.9070566 -1.1895276
