13

N -0.31346799 0.84423646 -1.06351302
C 0.72679626 0.31020670 -0.12822425
C -0.02017119 -0.58244256 0.82797586
N -0.75820159 -1.55995050 0.00047589
C 1.51818947 1.35781581 0.37915010
N 2.18359617 2.23722892 0.76020933
H -0.91379040 0.01434768 -1.22318761
H -0.08750758 -2.20452231 -0.40733315
H 0.08879493 1.14329119 -1.95031190
H 0.69328522 -1.02406534 1.53536474
H -0.90277490 1.61083148 -0.71526352
H -1.42319061 -2.08752540 0.55095037
H -0.79155793 -0.05945196 1.43370683
