13

N -0.6602644 0.75497663 -1.4471774
C 0.47158906 -0.53019726 0.2532502
C -0.83667827 -0.31035885 -0.45957765
N 1.025294 0.8625343 0.76546687
C 0.52536994 -1.4639641 1.316685
N 0.6117469 -2.24178 2.1769457
H 1.6699076 0.15594016 0.12716097
H -0.054344602 0.42234138 -2.19261
H 1.0197184 1.0111097 1.771668
H -1.6222886 0.030624555 0.23497032
H -1.549628 1.0053924 -1.8682536
H -1.168677 -1.2731884 -0.87650687
H 0.5682555 1.5765696 0.19797854
