13

N 0.7548374 1.1662148 -0.19476892
C -0.48315862 -0.808962 0.36331412
C 0.17117135 -0.094500005 -0.77749914
N -1.3980161 0.14735168 1.0091894
C 1.1477293 -0.76970565 -1.5352738
N 1.956039 -1.2928153 -2.1942542
H -2.1954045 0.28914687 0.39971286
H 0.022753397 1.4579892 0.4796759
H 1.6415454 1.0713376 0.31416664
H 0.8745793 1.8906338 -0.9009515
H -0.971074 -1.7141011 -0.02196688
H 0.21702771 -1.1382197 1.1599604
H -1.7380298 -0.20437033 1.8986952
