10

O -0.32256982 -0.20736653 -1.6310537
C -0.3427744 0.51380247 -0.5234687
C 1.0467668 0.71181583 0.22730365
O 0.7655313 -0.52076143 1.0435629
C -0.38817644 -0.6113584 0.45881176
O -1.1031682 -1.6790291 0.544393
H -1.7115045 -1.639827 -0.22011995
H -1.0317523 1.3727611 -0.40046647
H 1.1808946 1.5516573 0.9096411
H 1.906753 0.5083061 -0.40860358
