10

O 0.9072252 -0.3764957 0.8559741
C -0.80773014 0.21343383 -0.22190222
C 0.5919345 -0.11220909 -0.47376788
O 1.3757827 -0.70845646 -1.3872997
C -0.47193485 -0.062372703 1.2348893
O 0.16504696 1.206346 -0.65425646
H -0.5082869 0.786382 1.9211065
H -1.7369444 0.13105802 -0.7693986
H 1.4452825 -0.13158508 -2.157377
H -0.96037555 -0.94610083 1.6520321
