10

O -0.0177546 -1.3788136 -0.9548876
C -0.4052254 -0.38650036 -0.05178893
C 0.6847379 0.008067918 0.9433516
O 0.63505524 1.3852277 0.47051013
C -0.26011375 1.0722206 -0.50357044
O -0.693441 1.772954 -1.362766
H -0.65277225 -1.3932385 -1.6831776
H -1.3824017 -0.58352876 0.41034988
H 1.6530488 -0.44622335 0.727499
H 0.43886673 -0.050165717 2.0044801
