9

O 0.818006 -1.6741649 -0.76290596
C 0.2697828 -0.5618627 -0.248232
N -0.30835778 -0.5125802 0.9402938
N -0.69101447 0.75844806 1.0228099
N -0.40952435 1.5248936 -0.0065078493
C 0.212798 0.70641863 -0.84953594
H 0.6973396 -2.3889477 -0.123641185
H -1.170529 1.110711 1.8354795
H 0.58149916 1.0370846 -1.80776
