9

O 1.833936 0.79913044 0.20276287
C -0.5071123 0.8501829 -0.5325508
N 0.2941906 -0.94636106 0.5119457
N -1.5119108 -0.016396366 -0.45119306
N -0.98551327 -1.0468631 0.16763133
C 0.6150889 0.26008105 0.071587905
H 2.39909 0.15604077 0.65062094
H -1.5217931 -1.8728821 0.3766705
H -0.615976 1.8170674 -0.9974755
