10

N 0.6032697 -0.80943406 1.5056058
C 0.014717686 0.16888794 0.7422066
O -0.4009461 1.2164725 1.1862786
N -0.099097654 -0.17515795 -0.6057438
C -0.63904697 0.67386633 -1.5596457
O -0.7698373 0.34635934 -2.7131639
H 0.8308584 -0.5138667 2.44294
H 1.2499834 -1.4552851 1.0789993
H 0.1335063 -1.1027379 -0.9298226
H -0.9234075 1.6508954 -1.1476542
