11

N 1.28572873 0.61108751 -1.85560351
C 0.87262631 -0.48337803 0.44133181
C -1.17057655 -0.58020045 0.55066709
C -0.24623401 0.60255109 0.28369026
C 0.70748380 0.27297435 -0.79081018
O -0.08160639 -1.52249893 0.58893171
H -1.65217968 -0.52149522 1.53282513
H -1.90857521 -0.83154745 -0.21987883
H -0.35367951 1.59079717 0.71830849
H 0.78252483 1.37713251 -2.30583605
H 1.76448760 -0.51542232 1.05637457
