12

C 0.10339823 -0.40053162 2.0527656
C 0.010643635 0.20721067 -1.6705961
O -1.5290827 0.16674027 0.6620841
N 0.8149104 0.3236473 -2.6369739
C -0.25070384 -0.023531651 0.7250103
N 0.51605856 0.063852414 -0.3765264
H 0.9753869 -1.0273852 2.2284164
H 1.520849 0.026303448 -0.28011528
H -1.395162 -0.3735573 1.7531517
H -1.0812669 0.2070768 -1.6957607
H 0.3028356 0.3980936 -3.5122836
H 0.012133023 0.43208128 2.750828
