12

C 0.71682880 -0.20486883 -1.94159276
C -0.55505310 -0.14706079 1.52387465
O 0.10128361 1.57082898 -0.46514975
N -0.05147193 -0.55077004 0.30510435
C 0.27867231 0.25814158 -0.76815832
N -0.81339592 -1.02706042 2.40680556
H 0.07470668 -1.54521929 0.19200028
H 0.97434081 0.47324957 -2.74662983
H 0.82094852 -1.27023650 -2.11350503
H 0.31076261 2.09325774 -1.24997371
H -1.17165057 -0.58412092 3.24702740
H -0.68597191 0.93385862 1.61019720
