11

C 0.7056288 -0.4411088 -0.63969636
C -0.4630125 -1.1599296 -0.049600404
C -2.1904202 -0.7029738 1.3282882
O -1.1273586 -0.24683353 0.6978064
C 0.9558874 1.0372075 -0.35304767
N -3.1332638 -1.0192903 1.9197904
H 1.5590523 -1.0695838 -0.33667183
H 0.6163469 -0.64477766 -1.7180239
H 1.0849946 1.2177131 0.7189196
H 1.8645729 1.3680309 -0.8646538
H 0.12757185 1.6615458 -0.70311046
