10

C -0.07027617 1.01379430 -0.39945353
C -0.60270239 -0.19785837 -1.03759651
N 0.34107186 -1.27963515 -1.37967813
N -0.16075058 -1.22889772 -0.14927375
C 0.31517767 -0.73051357 1.02861069
C 0.37348428 0.66739962 0.86461274
H -0.14886167 2.01495826 -0.80806134
H -1.58712252 -0.23678488 -1.50242138
H 0.75493547 -1.36980709 1.77952070
H 0.78504404 1.34734468 1.60374050
