10

C -0.2239511 0.97502136 -0.36995244
C -0.62906915 -0.03886048 -1.2359753
N -0.4558183 -1.3348297 -0.98659563
N 0.1316762 -1.7128223 0.13781461
C 0.5407697 -0.788455 1.0046632
C 0.3887306 0.5817042 0.8032773
H -0.38738427 2.0184808 -0.61732477
H -1.1187232 0.18411548 -2.1804307
H 1.0132738 -1.1797047 1.9018643
H 0.7404957 1.2953504 1.5426594
