10

C 0.21401109 -0.6712252 -1.0318907
C -0.73959714 1.0396348 0.29844964
N -0.4717117 0.78195685 -0.97047055
N 0.518416 0.44637778 -1.8007374
C 0.009382133 0.14955065 1.147599
C 0.62183523 -0.79045814 0.38853282
H 1.279781 -1.5800699 0.73048943
H 0.12243928 0.29619375 2.215916
H -1.3628074 1.8807149 0.56753856
H -0.19174847 -1.5526751 -1.5454265
