10

O 1.9232016 1.2649885 0.20368344
C 0.50783503 -0.8252892 0.65095127
N -0.0046940255 0.9555719 -0.6427277
C 0.9605195 0.41997936 0.118675925
C -0.78975785 -0.9252132 0.20364681
N -1.1300836 0.19414961 -0.49530634
H 1.0368115 -1.5028651 1.3022254
H -1.5181102 -1.7100352 0.36032388
H -1.8507533 0.24151933 -1.1963454
H 0.8650313 1.8871938 -0.5051271
