10

O -1.7697269 -1.1059202 1.207255
C -0.87754804 -0.54842234 0.5997946
N -0.86587244 -0.13811144 -0.72158134
C 0.34651318 0.4657583 -1.0506403
C 1.1137967 0.4472576 0.05281471
N 0.3727567 -0.16968709 1.0600785
H -1.6517041 -0.27759272 -1.3315006
H 0.5483079 0.8509 -2.0373957
H 2.114123 0.8136065 0.21605586
H 0.6693539 -0.33778855 2.0051198
