11

O -2.0129397 0.9911027 1.3767943
C -1.0816135 0.6131464 0.7237775
N -0.9774024 -0.5514995 -0.017140605
C 0.40630516 -0.80698645 -0.35853153
C 0.94206804 0.6306435 -0.32461357
O 0.080697626 1.309892 0.5899085
H -1.6057413 -1.2974385 0.23715633
H 0.90641093 -1.4432842 0.3829368
H 0.5113557 -1.2642605 -1.3447071
H 0.8626705 1.1117084 -1.30417
H 1.9681894 0.7069763 0.0385895
