11

O 0.48786223 1.9406813 -0.6229668
C -0.19706185 0.9798218 -0.087448165
N -1.076639 0.1326366 -0.7524073
C 0.063523404 -0.7058662 1.0938356
C 0.21579148 -0.605278 -0.40767592
O -0.18878464 0.72237825 1.2607708
H 0.97881925 -0.96762395 1.6288494
H 1.0220475 0.7749048 -0.72513777
H -0.7935292 -1.2843591 1.4531839
H 0.523755 -1.3793076 -1.1031096
H -1.0357842 0.39201188 -1.7378939
