12

O -1.2621725 -0.66067994 1.2324235
C 0.1267653 -0.48579758 1.183174
C 0.5834074 0.70398736 0.34375736
O 0.85528755 0.40330657 -1.0451874
C -0.149716 0.025472997 -1.8262576
O -1.2871323 -0.18906052 -1.4844819
H -1.5825219 -0.63148886 0.3160839
H 0.66286445 -1.3843143 0.8337029
H 0.45235166 -0.29739144 2.2126489
H 1.5505235 1.0743005 0.6922192
H -0.16177891 1.502616 0.4007101
H 0.21212171 -0.06095095 -2.8587933
