11

N 1.89631708 1.84520584 -0.50947030
C 0.08039120 -0.71934607 0.72725632
O 1.45043914 -0.40326840 0.34851529
C -0.92113309 -0.37286189 -0.36774165
C 1.66681051 0.78691596 -0.09241652
O -1.23310766 0.99386850 -0.42768689
H 0.11318519 -1.79024427 0.92334470
H -1.85593623 -0.89071691 -0.12952711
H -0.55802024 -0.76917378 -1.32936719
H -0.48446496 1.49091987 -0.78577188
H -0.15448084 -0.17129868 1.64286512
