11

N 1.5549462 1.9741083 -0.9723176
C 1.5238056 0.94521606 -0.43659788
O 1.5252507 -0.21034274 0.131256
C 0.2805933 -0.62942636 0.760206
C -0.9157472 -0.5034398 -0.17521879
O -1.3961488 0.8095262 -0.29441652
H 0.47313786 -1.6654575 1.035733
H -1.7316613 -1.0903687 0.25903407
H -0.7790943 1.3440596 -0.8133275
H 0.12878491 -0.019347124 1.6538602
H -0.6638674 -0.9545281 -1.1482109
