12

N 0.42915967 1.7125536 -0.4487818
C 0.04835628 -0.18205982 1.1002477
C -0.74381834 -1.4408484 -0.17520832
N 0.2127764 -1.6371866 0.8854567
C 0.14168175 0.4359881 -0.15814136
O -1.7259161 -0.91627467 0.4471083
N -0.09929221 -0.5528382 -1.1383684
H 0.2554456 2.0927746 -1.3682451
H 0.25860867 0.32368055 2.0415416
H 1.1099637 -1.901527 0.5053581
H 0.72437084 2.345851 0.28209868
H -0.6113361 -0.2801132 -1.9730662
