10

O 0.15836163 -2.0094705 -0.28696916
C -0.93035895 0.21692914 -0.3074577
C 0.15956345 -0.66533726 -0.16034502
C -0.48449868 1.374439 0.29651245
N 0.7768703 1.261137 0.76830214
N 1.198223 0.022408545 0.5538954
H 0.85823584 -2.360984 0.2817422
H -1.878927 0.0018507529 -0.7755619
H 1.1486998 -0.15917198 -0.76435214
H -1.0061693 2.3181994 0.3942338
