10

O 0.020619025 0.3232956 2.0237591
C -0.025577584 0.11806177 0.68897665
C 0.88991785 -0.2877016 -0.254885
C 0.14412317 -0.27970326 -1.4606438
N -1.1084485 0.094379544 -1.2802367
N -1.1912832 0.33454978 0.048770614
H 0.9144822 0.1365644 2.3353412
H 1.927222 -0.54697126 -0.102176666
H 0.48798364 -0.5356969 -2.4537947
H -2.0590389 0.64322203 0.45488945
