10

O 1.11068246 -0.04357338 1.65017337
C -0.01848103 -0.07033674 0.84262131
C -0.07862472 0.81896674 -0.36179996
C -0.48284224 0.04536521 -1.36352726
N -0.63080273 -1.31773920 -0.91849895
N -0.32832186 -1.41226113 0.28799094
H -0.87249390 0.14877491 1.49827261
H 1.87088957 -0.32375415 1.12418793
H -0.69112566 0.27317111 -2.40019097
H 0.12111981 1.88138673 -0.35922887
