10

O 1.071792 1.6531482 0.109011844
C 0.28207067 -0.6311779 0.327148
C 0.103041075 0.7515106 -0.20461234
C -0.6877996 -1.6536443 0.0067302976
N -0.85355306 -1.2078549 1.1650026
N -0.89202154 1.0427611 -0.92883295
H -0.8736366 2.033677 -1.1721343
H 1.6817961 1.2784119 0.75903386
H 1.2924407 -0.91283655 0.62725616
H -1.1241295 -2.353995 -0.6886031
