10

O 0.022255909 0.3244282 2.0221293
C -0.025074445 0.12046331 0.6891585
C 0.8907506 -0.2873561 -0.25437576
C 0.14463152 -0.27987424 -1.4608549
N -1.1082546 0.09608297 -1.2792317
N -1.191645 0.33702466 0.047003493
H 0.9137604 0.13119285 2.3357503
H 1.9275191 -0.54872787 -0.100611135
H 0.48624396 -0.53820205 -2.4535985
H -2.0601873 0.64496833 0.45463037
