12

C -1.0897616 -0.7249007 1.6446416
C 0.15673207 -0.71694803 -0.32746643
N 0.21107325 0.542051 -0.2865205
C 0.9406592 1.1959589 -1.3570787
O -0.474863 -1.4591155 0.5889758
H -1.554776 -1.4754635 2.2858543
H 1.7462525 1.7956319 -0.92303133
H 1.3763199 0.50536275 -2.0957108
H 0.60163933 -1.3623154 -1.0939097
H -0.34059677 -0.14880885 2.1977158
H 0.2675228 1.8837068 -1.8796384
H -1.8402017 -0.03515927 1.2461681
