9

N -0.8077031 1.8466812 -0.12930696
C -0.11095906 0.8110548 -0.3498613
N -0.23630406 -0.30924404 0.45890105
C 0.480907 -1.472706 0.29984462
O 0.36624217 -2.4394937 1.0115045
H -0.5954218 2.5739603 -0.80517155
H 0.62545496 0.67952365 -1.1504087
H -0.9010476 -0.26129708 1.2204506
H 1.1788315 -1.4284788 -0.5559522
