11

C 0.55761665 0.09602137 1.0430297
C -0.13804175 -0.91047573 0.37322342
O 0.935218 0.773712 -0.91113013
C -0.30375454 0.61736566 -1.3070432
O -1.0196075 -0.5606393 -0.51322484
H -0.45366693 -0.72434974 1.7086204
H 1.5025221 -0.121982455 1.530272
H -1.0053701 1.4538953 -1.1315501
H 0.09565299 1.065422 1.1918876
H -0.4327022 0.24050455 -2.3375187
H 0.26213345 -1.9294735 0.3534339
