12

O -0.009536677 -0.22405925 1.495061
C -0.73605096 -0.87959313 -0.75788003
C 1.3477877 0.43306366 -0.3611109
O 1.5869241 1.4542688 0.25276116
C 0.4201585 -0.62777466 0.1993113
O -1.6606255 0.5229988 -0.39029393
H -1.2722714 0.8317393 0.44262326
H 0.62757486 0.44698483 1.7873127
H -1.4186606 -1.5827783 -0.26044446
H 1.7336242 0.24695446 -1.3776634
H 0.98251206 -1.5717539 0.2124503
H -1.6014364 0.9499494 -1.2421273
