12

O 0.7804181 -1.4044374 -0.923747
C 1.047111 0.33639842 -0.7630058
C -1.3503712 0.4830397 0.033271942
O 0.4098507 -0.2309082 1.4690248
C 0.12387681 0.6309136 0.38991234
O -2.0855918 -0.2519637 0.65199244
H 0.58693093 -1.6181598 0.014467047
H 0.29440916 1.6909274 0.6519543
H 0.61280763 0.6888875 -1.7080455
H -0.45444733 -0.45551312 1.8531843
H 1.7361174 -0.94549763 -0.83988833
H -1.7011117 1.0763133 -0.8291207
