12

O -1.52394129 0.67452241 -0.63730420
C 1.42454095 0.25083811 -0.20552416
C 0.31326046 -0.65394233 0.29083753
O 1.70721662 1.28242108 0.37137800
C -0.73710984 -0.84655622 -0.79363019
O -0.22198514 -0.10762842 1.49152259
H -1.20752985 1.00007743 0.21931028
H 1.90822334 -0.05379782 -1.14899315
H -1.30837320 1.02636945 -1.49820159
H 0.75148307 -1.65121438 0.43547629
H 0.45027645 0.50808076 1.82407166
H -1.55606179 -1.42916991 -0.34894330
