10

N -0.33817756 1.1207293 0.28342158
C 0.30601552 -1.2558455 -0.53689814
C 0.7874173 1.9134085 0.08158132
O 1.863735 1.554647 -0.3460607
C -0.13933094 -0.10798047 -0.07244846
N -1.0622902 -1.2722193 0.1288325
H -1.8954138 -1.3475469 -0.44386935
H 0.5987174 2.962835 0.36384794
H -1.202985 -1.5704579 1.09063
H 1.082312 -1.9975696 -0.5490368
