10

N -0.5673357 1.1652069 -1.2859256
C -0.15364002 0.24926436 -0.32491717
C 0.6854121 -0.8124735 -0.39562318
O 0.68853945 -1.4134885 0.8453998
C -0.14856192 -0.67320824 1.5751606
N -0.6796912 0.32388628 0.9543426
H 0.14429711 1.4171494 -1.9573853
H -0.97406936 1.9855137 -0.86183447
H 1.3035856 -1.2678279 -1.1524221
H -0.29853612 -0.97402245 2.6032047
