11

O 1.0297003 -0.31829005 -0.98284495
C 0.09932004 -1.0980705 -0.25841796
C -0.43180153 -0.13984193 0.78513765
O -0.05572485 1.1114104 0.40486246
C 0.5961286 1.0020171 -0.86104023
N -1.0985839 -0.4548956 1.8028613
H -0.1210137 1.2660234 -1.6507654
H 1.4600264 1.6675234 -0.8738776
H -1.3651353 0.366756 2.3395238
H 0.60897595 -1.9511762 0.192833
H -0.721892 -1.451456 -0.898272
