11

C 0.9405703 1.091556 -0.76679474
N 0.0906459 0.13841051 -0.08310391
C 0.3774988 -1.0707891 0.42578337
N -0.7020266 -1.6151336 0.9568072
C -1.6421989 -0.6633291 0.7329273
N -1.2153643 0.4136647 0.10803978
H 0.5758699 1.243366 -1.785361
H 0.92575014 2.043308 -0.23115693
H 1.9591835 0.699742 -0.7943243
H 1.3645774 -1.5122527 0.39306659
H -2.674506 -0.7685428 1.0441167
