11

C 1.7266647 0.56832474 0.6469846
N -1.2526766 -0.62064034 -1.0566226
C -2.3413627 -0.64868635 -0.21102758
N -1.8775022 -0.8724042 0.9214675
C -0.03683738 -0.14678496 -0.72348064
N 0.47101477 -0.12891942 0.4457634
H 2.1867692 0.92997897 -0.2850354
H 1.552393 1.430975 1.30084
H -3.3665457 -0.61067724 -0.57889205
H 0.5044205 0.19324473 -1.6187091
H 2.4336617 -0.094410785 1.1587119
