11

N -0.54134965 1.0152003 0.7797755
C 0.08979287 -0.43922454 0.8955224
O -1.1413978 -0.57332563 -0.3838471
C 0.94006556 -0.22749633 -0.2629886
C -0.08925827 -0.37886617 -1.2942042
O 0.04715995 -1.0773966 1.909493
H -0.26886454 0.4461023 -1.9969202
H 0.158885 1.6847466 1.0833838
H 0.12295786 -1.3017548 -1.8566941
H -1.3408225 0.99364734 1.4103177
H 2.0228314 -0.14163238 -0.28383815
