11

N 1.41315348 0.56193389 -0.42099805
C -0.30679989 -1.21417377 0.19845833
O -1.35277509 -0.54944611 0.96243712
C -1.01970182 0.67647052 0.44962338
C 0.04879952 0.10848652 -0.49803392
O -1.46437032 1.73803465 0.75294728
H -0.72000900 -2.00927056 -0.42246851
H 0.47128747 -1.59639016 0.86325593
H 1.69868451 0.69229831 0.54478050
H -0.28633500 0.13892579 -1.53902344
H 1.51806600 1.45313084 -0.89097890
