11

N 0.04269879 2.65104960 0.91771369
C -1.22997978 -0.52276713 0.06880611
C 0.12417622 0.13911122 0.18928185
C 1.28338115 -0.32321765 -0.58583962
C 0.09748707 1.54167499 0.60204402
O 1.15466372 -0.62809293 0.79080413
H -1.74740840 -0.50887676 1.03173195
H 2.08172723 0.37294004 -0.83555627
H 1.14150648 -1.15982267 -1.26783907
H -1.84829532 -0.00032287 -0.66597100
H -1.09995695 -1.56167598 -0.24517612
