11

N 0.7373043 1.736923 2.3417547
C 0.24947678 1.3242967 1.3804353
C -0.34717205 0.7814151 0.14518212
C 0.5795356 -0.11817143 -0.7009838
C -0.40085804 -1.2331305 -0.31270203
O -1.2396216 -0.30234107 0.40070534
H -0.8365255 1.6014669 -0.39146388
H 0.5932367 0.14375347 -1.7595187
H 1.5983695 -0.2214105 -0.32584473
H -0.93881565 -1.7122091 -1.1338085
H 0.0050701634 -2.0005927 0.35624385
