11

N -0.75245833 -0.2269743 -2.5219285
C 0.6650032 1.1014289 0.4097618
C -0.32122073 -0.23451908 -1.4473467
C -0.8787021 -0.9304608 0.49084517
C 0.34308615 -0.322439 -0.054655958
O 1.2326895 -1.2478411 0.09956588
H 0.9177745 1.0529344 1.4722137
H -1.499823 -0.48938313 1.2664446
H 1.5299802 1.4622433 -0.15258057
H -0.1734638 1.7889502 0.2592381
H -1.0628657 -1.9539393 0.17844234
