10

C 0.008189004 0.20635936 -1.0956953
C -0.31528506 -0.7388786 1.0377464
O 1.5880259 0.71737343 0.71532434
C 0.38832858 0.39274383 0.5203359
H 0.18211918 -1.4824414 1.6582215
H -1.0501816 0.087863795 -1.323783
H 0.5973097 -0.6317645 -1.4688299
H 0.39373097 1.1380044 -1.5078021
H -0.42346168 1.1929787 0.65998054
H -1.368775 -0.88223916 0.8045017
