11

C -1.099423 -0.87930053 1.0265503
C -0.59738487 0.86945873 -0.7024671
C 1.164411 -0.6525108 -0.04121826
O 0.04254967 1.5185204 0.3726675
C -0.2101989 -0.3692793 0.014738949
N -1.8308831 -1.3213081 1.8085591
H 1.0958605 0.6888606 0.2884752
H -0.11908392 1.0140644 -1.6788865
H 1.618801 -0.6341087 -1.033467
H 1.6029304 -1.3193827 0.68830603
H -1.6675786 1.0849862 -0.74325824
