11

C 0.9376574 1.0913372 -0.76930296
N 0.08954999 0.13621102 -0.087347046
C 0.37886024 -1.0702087 0.42522553
N -0.6977554 -1.6125125 0.96083707
C -1.640654 -0.66332626 0.73731345
N -1.2168084 0.41283563 0.108028576
H 0.57586974 1.2435693 -1.7885242
H 0.9221603 2.0413022 -0.23157443
H 1.95681 0.69995993 -0.79455274
H 1.3667222 -1.5102127 0.39013255
H -2.6724122 -0.76895493 1.0497642
