11

C -0.60106635 0.24138236 1.1069337
N -1.3728507 -0.7670684 1.4272847
C -1.1066861 -1.7646785 0.48965633
N -0.19073102 -1.2569494 -0.4276967
C 1.0640761 0.8267543 -0.7265138
N 0.07605658 0.023286637 -0.035148736
H -1.3053145 -1.5602643 -0.80051523
H -0.48431966 1.1649159 1.6642509
H 1.0995302 1.8130865 -0.25912106
H 2.0453358 0.35065156 -0.6633376
H 0.7759695 0.9288834 -1.7757925
