11

C -1.2523023 -0.12380036 -0.54418504
N -0.01240771 0.00880793 0.008904116
C 0.76719064 -0.9935231 0.7130783
N -0.591057 1.8850046 -0.9686106
C 0.3530014 1.2848678 -0.2931529
N -1.6136037 0.98833317 -1.127411
H -1.8353354 -1.0320383 -0.48916754
H 1.2980998 1.7178305 0.0029696855
H 0.09201508 -1.6753079 1.2330436
H 1.4050915 -0.5024732 1.4504831
H 1.3893074 -1.5577008 0.014048367
