13

N -0.602592 -0.86204684 -1.4382117
C 0.4420953 -0.04171962 -0.8394671
C -0.083459795 0.54994744 0.4796937
N -0.5253643 -0.5329492 1.3518823
C 0.98174626 1.3232814 1.1368849
N 1.8193818 1.9437057 1.6359947
H -0.5185452 -0.87915534 -2.4489589
H -0.5123377 -1.8238447 -1.1301318
H 0.6918723 0.77947944 -1.5194141
H 1.3622648 -0.60205376 -0.6240961
H -0.8893259 1.2582451 0.23146181
H -1.345045 -0.94334507 0.9146304
H -0.82069105 -0.16954432 2.2497318
