13

N 1.1824417 0.6889198 1.0871563
C -1.2213557 -0.19746011 -1.6220485
C 0.8205248 0.48120898 -0.3169153
N -0.94143033 -1.0191532 0.66293204
C -0.63658035 0.1343887 -0.37890476
N -1.7402592 -0.45303774 -2.6308947
H 0.76728886 1.5626636 1.4003559
H -1.5644879 -0.05097147 0.638264
H 2.1884754 0.7711407 1.1890817
H 0.999747 1.3478914 -0.9679179
H -0.18979459 -0.973936 1.348583
H 1.4514931 -0.34542084 -0.6821971
H -1.1160632 -1.9462339 0.2725053
