11

N 1.6181542 -1.5981703 0.6422514
C 0.7571081 -0.73398525 0.3043213
C 0.854508 0.6696225 0.73774904
N 0.020342443 1.5900741 0.4308977
C -1.0552695 1.2045584 -0.3757184
C -1.203841 -0.050799076 -0.8036221
O -0.32439741 -1.0402813 -0.48767525
H 1.3988173 -2.5153906 0.25748625
H 1.7112942 0.9099146 1.3637522
H -1.766272 1.9772004 -0.64058685
H -2.0104444 -0.41274348 -1.4288555
