11

N 1.1625105 0.9165213 -0.30381435
C -0.77199745 -0.42044762 -0.5713959
C 0.27292675 0.45946223 -1.1006415
N -1.6691403 -0.88083416 -1.3396888
C 1.263759 0.6465172 1.1113448
C 0.2923162 -0.16132045 1.5632533
O -0.70920205 -0.6942624 0.7638211
H -2.318468 -1.4761615 -0.8222759
H 0.16455977 -0.50047463 2.583325
H 0.2608098 0.714323 -2.1551473
H 2.0519257 1.396677 0.27121964
