12

N 0.7852788 -0.75785893 -1.150713
C -0.5794205 0.89017695 -0.35146466
N 1.2070893 0.36608163 0.96225464
C -0.014606729 0.18851528 -1.5178871
C 0.43403947 -0.5983209 0.2366749
C 0.41910133 1.3373863 0.6264096
N -0.04481914 -1.6773931 0.8962821
H -0.21256937 0.4058521 -2.5678227
H -1.5721042 1.3298352 -0.39338166
H 0.5293581 2.3398767 1.0401626
H -0.6374303 -2.2965322 0.36158288
H -0.31391674 -1.5276191 1.8579026
