12

N 0.55552809 -0.20643604 -1.46664450
C 1.48194788 0.01486843 -0.60349581
N -0.81051149 -1.32836036 0.27681238
C 0.09888924 -1.11084069 1.15270387
C 0.65978470 0.20194718 0.65159848
C -0.48292629 -0.04634428 -0.41483364
N -1.59213490 0.71148717 -0.80655913
H 0.79810884 1.06251576 1.30971902
H 2.55059154 0.03378163 -0.80180014
H 0.35854738 -1.75470508 1.98888009
H -2.27984943 0.81901105 -0.07265689
H -1.33797465 1.60307505 -1.21372370
