11

N -1.3158817 0.4859156 -0.39750305
C 0.94385964 0.5628765 0.49873105
O -0.6733912 2.144401 1.0505085
C 0.6507689 -1.7069801 -0.2302378
C -0.38666975 1.1366221 0.41898787
O 1.2805569 -0.662618 0.19289838
H -0.9616411 0.1283364 -1.2743726
H 1.269932 -2.5853786 -0.33377686
H 1.7597142 1.1227144 0.94219214
H -2.1398578 1.0596291 -0.51511765
H -0.42739007 -1.6855186 -0.35231003
