10

O -0.3354647 -1.7348253 0.9988167
C -0.62788993 -0.10615499 -0.84399617
C -0.028237212 -0.5670645 0.45017076
N 0.79671186 0.2896449 0.93961626
C 0.76021934 1.3283935 -0.01622862
N -0.002210572 1.1915439 -1.0381937
H 1.377222 2.2069554 0.14589861
H -1.718103 -0.012097572 -0.78472435
H -0.39623448 -0.7845598 -1.6717057
H 0.17398685 -1.8118356 1.820346
