10

O 0.21523534 2.2116344 0.39153746
C 0.1188472 0.88465255 0.16165045
C -1.0033971 0.19476072 -0.21411534
N -0.5699586 -1.1183654 -0.311727
C 0.74382114 -1.1403654 0.001351183
N 1.1950381 0.059465617 0.29355362
H 1.1302674 2.3774388 0.6508458
H -2.0202587 0.4915922 -0.4092256
H -1.1376791 -1.9094656 -0.56678253
H 1.3280842 -2.051348 0.002912015
