9

O 2.5032392 -0.30601072 -0.045916453
C 1.4262142 0.22171547 -0.13334948
C 0.21073596 -0.23446102 0.66430765
C -1.0244583 -0.096466094 -0.108012594
C -2.0131245 0.036347378 -0.7791383
H 1.2556638 1.0982214 -0.7902103
H 0.1621106 0.39439505 1.564168
H 0.37470174 -1.2635447 0.99850523
H -2.8950825 0.14980324 -1.3703538
