10

O 1.0526828 -1.6775397 0.92979515
C -0.7476735 1.0575728 -0.68293816
C -1.616622 1.7487893 -1.145984
O 1.5487074 0.69761974 -0.27322388
C -0.0072527165 -0.92496413 0.47464964
C 0.2780549 0.22592627 -0.13289338
H 2.135644 0.05923773 0.1587514
H -2.3867836 2.3625321 -1.5562587
H 0.7620157 -2.2519586 1.6469032
H -1.018773 -1.2972155 0.581199
