12

C -0.15824734 0.42923695 2.3108578
N 0.16216733 0.79344857 0.9472079
C -0.028298777 -0.082393356 0.05752389
N 0.25332156 0.18811654 -1.279495
C 0.09067933 -0.5994756 -2.3049543
O 0.45020163 0.032276552 -3.3563192
H -0.92588586 1.1094512 2.6955414
H -0.51510644 -0.60608524 2.4248843
H 0.7314923 0.5633124 2.9344058
H -0.41927007 -1.087937 0.26889908
H 0.64195395 0.8818756 -2.3810325
H -0.2830075 -1.6218266 -2.3175185
