11

O -0.47053453 1.0691056 2.4849043
C 0.30367592 0.2251002 2.1052206
N 0.47214037 -0.12049173 0.77697235
C -0.21778218 -0.01232657 -1.5359594
C -0.20501724 0.5071863 -0.24443404
C 0.3307283 -0.4990169 -2.6070416
H -0.19440709 -1.2390102 -3.2115328
H 1.1545243 -0.82334274 0.52266526
H -0.80370957 1.3564829 0.06537968
H -1.334616 -0.11482249 -1.1341702
H 0.9649975 -0.34886414 2.7779958
