10

N -0.8685757 0.8635941 0.06844932
C 0.16286568 -0.41312197 -1.485078
N 0.5072267 -0.8453621 -0.22403368
O 0.479625 -0.8616289 -2.5455537
C -0.019820945 -0.03428477 0.7628309
O -0.64566654 0.6653838 -1.325365
N 0.21669556 -0.13755946 2.0008152
H -0.6515856 1.8392677 0.24619663
H 1.1300299 -1.6122264 -0.04428101
H -0.31079417 0.5359378 2.5460193
