10

N -1.8224418 0.30779174 1.1185774
C 0.8627307 -1.320559 -0.37948573
C -0.7780518 -0.0479035 0.5053815
C 0.24078916 0.89582753 -0.0015086583
C 1.2112997 0.26897478 -0.70619524
O 0.5909179 -0.81796527 -1.567628
O -0.34218797 -1.337715 0.3475745
H -2.3783858 -0.49809462 1.3998221
H 0.24378854 1.9281293 0.33011332
H 2.1715417 0.6215141 -1.0466511
