10

N -1.47904014 -1.35837188 0.77727738
C -0.64696755 -0.61704312 0.19286603
C 0.19584569 0.36131135 0.85373646
C 1.02833880 1.06422965 0.10196051
C 0.37491182 0.01489058 -1.96135262
O 1.11074415 0.89401386 -1.25934770
O -0.46749735 -0.69453793 -1.19820609
H -1.95624613 -1.97273285 0.12060058
H 0.12165208 0.48194897 1.92529983
H 1.71825866 1.82629164 0.44716558
