10

N -1.5364659 -1.4203056 0.7512184
C -0.6782815 -0.64276046 0.2632458
C 0.14400034 0.33233672 1.0107484
C 0.9249308 0.96496266 0.13744761
C 0.63761187 0.4209376 -1.2186835
O 1.1017663 0.6991511 -2.2818692
O -0.3411522 -0.5496119 -1.0728568
H -1.9692985 -1.9950644 0.029543282
H 0.057854824 0.44820887 2.0813632
H 1.659034 1.7421457 0.29984277
