11

O -0.49651036 -0.588146 1.297289
C 0.1495129 -1.3486984 0.3154367
C 1.0919836 1.0270677 0.28678995
C -1.1964636 0.5048593 -0.7885167
O -1.0609112 1.324108 -1.6601609
C -0.08425971 0.10357875 0.1269999
O 1.9650109 0.81748855 1.0885446
H 1.0907935 1.8948014 -0.3974531
H 1.1677357 -1.6527303 0.55415493
H -2.1487446 -0.027784007 -0.5928399
H -0.47814685 -2.0545444 -0.2302444
