11

O -0.23051684 -0.85621077 -1.156834
C -0.028784933 0.029258838 -0.043206528
C -1.3498888 -0.6399014 0.15587473
C -0.0038108586 1.4997041 -0.38502747
O 1.7611129 0.20740318 1.520845
C 1.1070584 -0.49150443 0.7911411
O -0.4170855 1.9086635 -1.4371622
H -1.1992276 -1.5675154 0.7317947
H -1.3024447 -0.66045415 -1.2827859
H 0.40522984 2.156111 0.40396488
H 1.258358 -1.5855545 0.7013956
