12

O -0.6646331 -1.450593 0.879483
C -0.059012722 -0.22241999 1.2007514
C 0.44377923 0.45209965 -0.073493816
O 1.3283252 -0.42297715 -0.7204932
C -0.71182597 0.7742901 -0.99813884
O -0.7207283 0.3818262 -2.138897
H -0.029940994 -1.9099433 0.3108459
H 0.7851878 -0.34587136 1.8926399
H -0.81562275 0.39914653 1.6931579
H 0.9380778 1.4045228 0.18469138
H 1.030666 -0.46298802 -1.6457295
H -1.5242724 1.4029074 -0.5848171
