12

N 1.030407 -0.6631045 -0.09555726
C -0.7849177 0.8851548 -0.17133825
N 1.2326614 1.8058978 -0.013462992
C 0.65164816 0.64017004 -0.18847293
O -0.2588484 -2.5225606 0.4785031
C -0.1330659 -1.2336631 0.19176218
N -1.215413 -0.4405278 0.24419475
H -2.1507976 -0.7926776 0.36106434
H 2.205074 1.9601928 -0.25694123
H -1.175253 1.1259257 -1.1653408
H -0.03437843 2.1322477 0.17509834
H 0.63288355 -2.8970559 0.4404907
