12

N 2.3082802 0.5866436 0.06540836
C 0.24838494 0.21606809 -1.2091584
N -0.9865013 -0.3687766 -0.7012291
C 1.0850793 0.27009347 0.073295146
O -1.9522161 -0.72191554 1.346345
C -0.8680883 -0.3786416 0.65743774
N 0.2740322 -0.08200334 1.1723036
H -1.887637 -0.20831029 -1.1220195
H 2.6711123 0.56156445 1.0162714
H 0.7237929 -0.40535697 -1.9721
H -1.7123332 -0.69360316 2.282885
H 0.0960941 1.2242379 -1.6094393
