10

O -1.4593875 -0.18032384 0.34873027
C -0.33709762 1.2663803 0.38075215
C 0.8379386 0.36600995 0.8951177
C 0.74658287 -0.63460124 -0.2821724
O 1.6048654 0.506575 1.8028907
C -0.47620687 0.18108447 -0.668677
H 0.61318177 -1.7001784 -0.07768841
H 1.58382 -0.47880298 -0.96921974
H -2.2282455 0.4027694 0.24193071
H -0.8854511 0.2710876 -1.6716639
