10

O -0.18916981 -1.004588 -1.1549073
C -0.40648323 0.9279592 0.15247549
C 0.78476524 -0.966779 0.3136745
C 0.5689638 0.12885095 -0.69804245
O -0.8671643 -0.531513 2.1654236
C -0.3453926 -0.27510184 1.124384
H 1.2892517 0.5269506 -1.4078546
H 0.47608337 -1.8044038 -0.8254965
H -1.3612907 1.1989348 -0.30165848
H 0.05043649 1.7996898 0.6320013
