9

N -1.2655294 1.1269045 -1.4643188
C -0.849235 0.25429487 -0.64374185
N 0.41447517 0.39412817 -0.05258187
C 0.77154744 -0.50193256 0.7678645
O 1.9497384 -0.46267205 1.3896784
H -2.191637 0.8692975 -1.7968001
H -1.4296939 -0.6370687 -0.35263288
H 0.20324613 -1.3860482 1.0699058
H 2.397088 0.34309644 1.0826267
