11

C -0.3544836 -0.78580785 -0.25697523
N 0.088762075 1.7235317 -0.25153375
C 0.6009247 -0.553608 0.8412281
C -0.39476323 0.53328264 0.3894043
N -0.77869487 -1.4705583 -1.2211461
H 0.43450055 -1.0098774 1.8150234
H -1.1976565 0.72443056 1.0992031
H 1.6499536 -0.4176358 0.58362836
H -0.27017006 -2.3560355 -1.2887908
H 0.86323106 1.5001374 -0.8681001
H -0.6416037 2.1121407 -0.8419413
