11

C -1.1430844 -0.31348556 0.70635515
N -0.057620786 0.65911424 0.6410029
C 1.1034951 0.18413131 -0.08200836
C 0.83199763 -0.1692543 -1.4988512
N 0.54880166 -0.41713884 -2.5912874
H -1.5122155 -0.63828087 -0.2786771
H -1.9726448 0.12591423 1.2668878
H -0.7989608 -1.1974746 1.2558407
H -0.38898918 1.5189166 0.21838139
H 1.8854111 0.95005167 -0.06115508
H 1.5038097 -0.7024939 0.42351103
