11

C -0.72845185 -0.1705229 -2.3139882
C -0.1603197 -0.12051193 -0.9721876
C 0.31811336 -0.087586895 0.13032392
C 0.9775146 -0.098268785 1.441553
O 2.0851367 -0.5668006 1.6087576
N 0.24396232 0.4721056 2.4356966
H 0.008686147 0.15381733 -3.0542235
H -1.6072718 0.47740036 -2.398663
H -1.0295221 -1.1913775 -2.5624247
H 0.61082226 0.3977057 3.3752456
H -0.7186701 0.73403955 2.30991
