11

C -0.73145163 -0.17173474 -2.3149378
C -0.16404407 -0.12141936 -0.96965873
C 0.3199834 -0.08704426 0.13413699
C 0.97855914 -0.099522054 1.440364
O 2.0847836 -0.567686 1.6110259
N 0.24600582 0.47364402 2.439549
H 0.007962991 0.15171391 -3.0544093
H -1.6085317 0.47606185 -2.4007392
H -1.0321391 -1.1935279 -2.5626628
H 0.6129036 0.40241483 3.3765357
H -0.71403223 0.7370999 2.300796
