11

C 0.6731984 0.6621594 1.5050073
C -0.17346877 -0.09723297 -0.3248085
C 1.232753 -0.5239113 1.2037623
C -1.0675225 -0.07656837 -1.5156629
O -0.23717274 0.95368654 0.52881163
N 0.6804494 -1.0033127 0.023221903
H 0.7831723 1.3825763 2.2993367
H 1.9917669 -1.0745364 1.7415004
H -0.87254244 0.8013184 -2.139137
H -2.11989 -0.04764268 -1.217598
H -0.8907437 -0.9765361 -2.1044343
