11

C -1.3575422 -0.07918339 -0.72996485
C 0.6442539 -0.10114015 0.19903907
C 1.5487168 0.5654469 1.2045593
C -1.691242 -0.7467474 -1.7905911
O 0.97623754 -1.0218321 -0.5090248
N -0.65605134 0.489984 0.16957498
H 1.6938881 1.6119078 0.9164151
H 1.0679368 0.56450963 2.1875548
H -2.4414244 0.31533 -1.0224255
H 2.5068667 0.04704926 1.2396528
H -2.2916398 -1.6453245 -1.8647894
