11

C 0.01497164 0.24618462 -0.90087202
C -0.51887437 -1.69117066 0.38958383
C -0.00024879 -0.49325181 0.42797242
C 0.70768656 0.17803975 1.57589780
O 0.87868598 1.06188587 -1.14652656
N -0.98420912 -0.08450484 -1.75696772
H 1.68844312 0.51120136 1.22191519
H -1.00522645 0.36963037 -2.65728895
H -1.75583662 -0.66439618 -1.47602133
H 0.82723269 -0.49572159 2.42470826
H 0.14737516 1.06210330 1.89759884
