11

C -1.6862087 -0.008844307 0.3556017
C 0.48113716 1.6183444 0.4861281
C -0.38125116 0.69751257 0.35083288
C 0.7852703 0.10030402 -0.64906955
O 0.5327324 0.030388415 -1.8202327
N 1.7772992 -0.60469866 -0.02662708
H 2.0996013 -0.26551136 0.86636424
H 2.4561613 -1.0301656 -0.6422866
H -2.1225827 0.0003334314 -0.6482448
H -1.5783675 -1.0456902 0.6870729
H -2.363792 0.50802726 1.0404611
