12

C 1.6689532 0.8770669 0.1719152
N -0.5280987 -0.56730556 -0.7751446
C -0.55582124 -0.082500815 0.43111843
N 0.46281198 0.62767416 0.9396901
C -1.6686745 -1.274594 -1.1372707
O -1.8432932 -1.7964548 -2.2117312
H 1.400109 1.2925253 -0.8037083
H 2.21404 -0.058384378 0.0026488735
H 2.300207 1.5806987 0.7157882
H -2.4574895 -1.3417605 -0.34636754
H 0.4074196 0.9524196 1.8908576
H -1.4001632 -0.2093845 1.1222041
