12

C -0.0459542 -0.8279047 1.1577747
N -0.21209136 0.03419007 -0.29391924
C 0.14654952 1.1143128 0.33262974
N 0.42767042 0.688599 1.5642191
C -0.12036596 -0.35139582 -1.674326
O 0.75566983 -1.7352843 1.199028
H -1.0855523 -0.72663254 -2.0300407
H 0.19383052 0.49557465 -2.297384
H 0.21362524 1.2329617 2.3888273
H 0.2091265 2.130358 -0.05953693
H -1.099443 -0.8973999 1.478913
H 0.61693484 -1.1573787 -1.7661848
