12

C -0.65596685 0.18743314 0.19021842
N -0.41984016 -0.64101938 -0.78383768
C 1.72585490 0.47332418 0.61773367
N 0.33082470 0.76302845 0.89416426
C -1.55958626 -1.14002074 -1.40374243
O -1.55683721 -1.91453274 -2.32971184
H -1.66407919 0.48198095 0.51203097
H 1.92272193 0.61517899 -0.44896436
H 0.09575267 1.37107015 1.66115445
H 1.95651416 -0.56813947 0.86871088
H 2.35380668 1.14400868 1.20530135
H -2.52916529 -0.77231251 -0.98305796
