12

C -0.76536393 1.1757917 0.0019052085
N -0.18390915 -0.15366821 -0.14274989
C 1.0645202 -0.41415042 0.4037679
N 1.7046125 0.486344 1.0306916
C -0.8578407 -1.1484202 -0.81716704
O -1.9442899 -1.0199674 -1.3256862
H -1.7376845 1.1588031 -0.49103907
H -0.11141645 1.9195247 -0.45992407
H -0.8720259 1.4197258 1.0606894
H 1.3998097 -1.4432098 0.22866935
H 2.5903356 0.11560124 1.3560066
H -0.2867474 -2.0963748 -0.84516406
