10

N 2.6278477 1.0023832 -0.33769992
C -0.8400383 0.34763762 0.42509535
C 1.5835636 0.5483461 -0.5611245
C 0.32090047 -0.0074158516 -0.98608524
C -0.23640625 -0.9832499 -0.032274824
H -0.96208 -1.6867313 -0.439025
H -0.5775898 1.0824944 -0.456421
H 0.4269886 -1.4263396 0.7098303
H -0.41831473 0.7453714 1.3431224
H -1.9248714 0.3775037 0.33458254
