10

N -1.8585305 -0.5229056 2.40315
C 0.728139 -0.35574788 0.008847783
C -0.8991701 -0.19862777 1.8199126
C 0.0009575547 0.45745283 -1.1002381
C 0.27036864 0.3242596 1.237182
H 0.36656275 0.11046143 -2.0696576
H -1.0799065 0.30472565 -1.0652542
H 1.8049716 -0.23211035 -0.134395
H 0.21248391 1.5256661 -1.0120672
H 0.4541235 -1.413174 -0.087480545
