10

O 0.7741109 0.37991396 -0.9905285
C 1.8519778 -0.3546821 -1.0589378
C -0.9023198 0.4085778 1.5209494
O -1.193689 0.4462883 0.20166004
C -0.41323325 -0.34562364 -0.64559203
O -0.031578273 -0.2478163 2.0183938
H -1.6005806 1.0629667 2.0560162
H 2.6157763 0.40357822 -1.3574901
H -0.9872479 -0.47099486 -1.5650879
H -0.11321637 -1.2822082 -0.1793829
