10

O 0.81788146 0.93522143 -1.7095087
C -0.018001279 0.8136734 -0.6058985
C 0.20718193 -0.4914964 0.12350317
O 1.0201676 -1.3027546 -0.25856906
C -0.61456 -0.7868399 1.3647825
O -1.4407173 -0.022832438 1.7902697
H 1.3491771 0.12505102 -1.7512162
H 0.13957326 1.6347 0.110230654
H -1.0792108 0.8594335 -0.8957363
H -0.381492 -1.764156 1.8321425
