10

O 0.79657745 1.9330404 -0.760842
C 0.35547146 0.8901122 -0.37939036
C -0.9278542 0.44319922 0.32789233
N -0.5073542 -0.9551738 0.09616991
C 0.8323063 -0.5656263 -0.3887711
H -0.95260656 0.7670456 1.3774512
H -1.8709933 0.72489387 -0.15207511
H -0.49491084 -1.524683 0.9331915
H 1.6618949 -0.7323514 0.31154922
H 1.107469 -0.9804564 -1.3651756
