10

O -1.45896740 1.90730883 0.23808603
C 0.66578248 0.73136286 0.59180772
C -0.63170613 1.01214181 0.18153338
N 0.69686039 -0.63698470 0.01128169
C -0.71796453 -0.40563891 -0.48482822
H 1.47669821 1.17300319 1.15077877
H -0.76205836 -0.44474016 -1.57528729
H -1.41019293 -1.12300913 -0.04121043
H 1.36932526 -0.79649583 -0.74146356
H 0.77222301 -1.41694756 0.66930189
