10

O -1.5480195 -0.41800588 1.8033315
C -0.69684535 -0.30366132 -0.58075017
C -0.68217015 -0.16413543 0.98190707
N 0.7274873 0.21812437 -0.56095916
C 0.61922485 0.31854284 0.9184146
H -1.3527558 0.36889005 -1.1375538
H 1.4082727 -0.4504142 -0.930553
H -0.7374889 -1.3143219 -0.9900303
H 0.8442822 1.0969913 -1.0691226
H 1.4180126 0.6479902 1.5653162
