11

C -0.52457935 1.0413144 0.54415166
C -0.07602995 -0.04757822 -0.43064758
N 1.3783593 -0.14231093 -0.4511171
C -0.72071034 -1.3474585 -0.10248633
N -1.1604784 -2.3816082 0.1653282
H -1.6119766 1.1587218 0.53120697
H -0.22048189 0.7937327 1.5671108
H -0.054623917 1.9858043 0.25971866
H -0.40305775 0.22547287 -1.4402102
H 1.6787939 -0.8557686 -1.1061385
H 1.7147847 -0.43032137 0.46308377
