10

N -1.25083782 -0.55372721 -1.48933515
C -0.54375843 -0.26193641 -0.48549686
O 1.16671877 0.58489272 0.82261951
C 0.74241699 0.53996390 -0.55297093
C 0.22488237 -0.08735102 1.50285230
N -0.76555849 -0.59748804 0.87736203
H -2.06394403 -1.09228554 -1.19561981
H 0.38797751 -0.14290719 2.57410215
H 0.58618958 1.56109505 -0.90609336
H 1.51591387 0.04974399 -1.14741954
