13

C 0.005690974 -0.050410394 0.120956875
C 1.3116928 0.6041604 -0.044019282
N -0.78854346 -0.5085902 -1.0072255
O 1.2079633 -0.7719595 0.31155023
C -0.84623414 0.14839526 1.3454463
O 0.0036733705 -0.7064566 -2.1344793
H -1.5783193 0.9494896 1.1822199
H 0.3315765 -1.5946045 -1.9690807
H 1.6817012 0.78221345 -1.0471714
H 1.6996182 1.2487622 0.748123
H -0.22255863 0.42029783 2.200887
H -1.3926731 -0.77109617 1.5772432
H -1.4135873 0.2497986 -1.2844504
