11

N 1.43549453 -0.34165363 1.05187927
C 1.54135126 0.77247006 0.42680932
N 0.50708611 1.16815173 -0.44184781
N -1.48507761 0.10658379 -1.06440690
C -0.33863797 0.18795572 -0.35344794
C 0.15741971 -0.87594808 0.59931112
H 2.39788904 1.43026358 0.54413989
H -0.51931765 -1.03162280 1.44609192
H -1.78154366 0.94834078 -1.53814999
H -2.21210445 -0.52392613 -0.76949331
H 0.29744057 -1.84061469 0.09911459
