10

O 0.07131752 1.1285771 1.7516516
C -0.4419957 -1.0686451 -0.5806063
C 0.06248286 0.22446948 0.83529705
O -0.7404261 -0.7928135 0.87178105
C 0.4879589 0.21875176 -0.6003856
O -0.075008065 1.3698748 -0.9330512
H 0.46834034 1.913057 1.3222866
H 1.5405065 -0.00042003402 -0.86498636
H -0.0039185034 -2.063087 -0.6692084
H -1.3692577 -0.92976433 -1.1327785
