10

O 0.2962625 0.45932555 -1.182905
C -0.55222154 -0.31253648 0.58909506
C 0.72595114 0.20735921 0.12039172
O 0.6343944 -1.1469917 0.4420769
C -1.0281178 -0.044614945 -0.82886255
O 1.7708619 0.94127053 0.53914946
H -1.2931219 -0.91465586 -1.432882
H -1.7713431 0.75228226 -0.9082453
H 2.304579 0.39974 1.1336161
H -1.0872451 -0.34117857 1.5285653
