11

C -0.1894142 -0.30059126 0.103865415
C 2.5270052 0.08595731 -0.1352865
C 0.3635329 0.9923216 -0.22605024
N 1.6677076 0.92828345 -0.36241978
C -1.6734843 -0.41666627 0.35377106
O 0.55303943 -1.2802796 0.18831335
H -2.1886861 0.54627186 0.29932857
H 3.0446634 -0.5246307 -0.8716815
H -2.1065767 -1.1022722 -0.38023677
H -0.17221788 1.9276913 -0.31382406
H -1.8255694 -0.8560852 1.3442205
