11

O 1.506822 0.8116715 -2.2232673
C 0.18963028 0.47672018 1.364233
C -1.0431089 -0.5825108 -0.5061617
C 1.4898182 0.507284 1.1340142
N -0.9363929 -0.081659764 0.76765144
C 1.0482541 0.038069826 -1.4299967
N -0.23334904 -0.49055773 -1.4927053
H -1.7320353 -0.23362046 1.3677256
H 1.6732379 -0.3807204 -0.60370713
H 0.025038851 1.0432307 2.2906578
H -1.9879154 -1.1079072 -0.668444
