11

O -0.33183078 1.55098243 0.57703279
C 0.27357712 0.68186301 1.36202376
C 0.81148261 1.49646026 -0.44732829
C 0.54661984 0.37023165 -1.17819854
N -0.15638573 -0.56410683 1.43412146
C -0.72239717 -1.04316847 0.35313948
N -0.42268044 -0.60644443 -0.88141557
H 1.01633835 1.03136604 2.07612464
H 1.13916852 0.14994681 -2.06183282
H -0.77751183 -1.16000660 -1.65159430
H -1.37638047 -1.90712395 0.41792740
