12

C 0.78804734 -2.12040478 0.14015828
N -0.29737542 -1.28210978 0.13265915
C -0.28805967 -0.03482301 -0.52547162
N -0.18763900 1.05981923 0.23682283
C -0.24464227 2.34940946 -0.04346282
O 0.77067106 -3.24912611 0.58418494
H -0.39998307 2.66656687 -1.06582108
H -0.55886455 0.06859102 -1.56750821
H -1.16732990 -1.70980571 0.43542180
H 1.68284170 -1.63467106 -0.29455030
H -0.03140253 0.83066645 1.21566095
H -0.06626362 3.05588777 0.75190581
