9

N -0.2591954 1.222725 1.516699
C -0.3668977 1.1596644 0.16481291
O -0.7421261 2.0681348 -0.54551584
C 0.016321983 -0.13982329 -0.41171792
C 0.30361366 -1.1654367 -0.97477245
C 0.63366103 -2.3417337 -1.6246
N 0.9094632 -3.3249419 -2.1663687
H 0.03060858 0.43602857 2.0731332
H -0.52544945 2.085383 1.9683303
