9

N 0.2131834 1.1888025 -0.74636286
C -0.18020159 -0.99873877 0.17068483
O -0.0465798 -0.61434 -2.122859
C -0.43018094 -2.098959 0.7922167
C 0.0025012745 -0.11647892 -1.0238127
C -0.11350039 -0.68344235 1.6526443
N 0.01660776 -0.053753916 2.6228547
H 0.2134897 1.5635803 0.1883968
H 0.32468063 1.8133305 -1.533763
