11

C -0.22765163 1.6724662 -1.2185473
N -0.38328546 -0.7044044 0.030535376
C 0.30089688 -1.3407626 1.1447049
C -0.0794398 0.5577118 -0.32549754
N 0.55695677 1.5708412 0.07694771
H -1.1368885 2.2758465 -1.2067225
H 1.2691008 -1.7664073 0.85481316
H 0.34928867 1.7346995 -2.1428497
H 0.46748385 -0.5865737 1.9165592
H -0.3315459 -2.1315932 1.5567596
H -0.78491557 -1.2818239 -0.6867032
