12

O 0.22740827 -2.20159237 1.48610951
C 0.05905338 -0.26710036 -1.37372274
C 0.32496322 1.14786501 0.48821926
N -0.38947599 0.98770999 -0.76911004
N 0.12000615 -1.33968415 -0.58969768
C 0.20745528 -1.10340224 0.70108287
N 0.36490468 0.06777259 1.28219167
H -0.07850707 -0.33567074 -2.45022085
H 0.30414323 2.15530990 0.89556687
H -0.18344303 1.77598435 -1.40311259
H -1.42472081 1.00493912 -0.63395864
H 0.46821257 -1.89213085 2.36665239
