11

C -1.24378 0.91353166 0.35546756
C -0.042905804 0.114649266 -0.03421814
C 0.055363484 -1.1313 -0.6409193
N 1.3397702 -1.4895154 -0.7362859
N 2.0665648 -0.4811508 -0.31366315
N 1.2116609 0.5620292 0.14792366
H -1.2314283 1.1359874 1.427523
H -1.2644638 1.8669466 -0.1828512
H 2.0043862 -0.080984324 0.8555993
H -2.1606047 0.36514226 0.12598468
H -0.73456305 -1.775336 -1.0045602
