12

C 1.57902593 -0.65929547 0.23385162
C 0.14643291 -0.60902924 -0.21841191
C -0.71431057 0.39191811 0.01403650
O -0.43349336 1.54021511 0.68013891
N -2.05467735 0.39285867 -0.35150592
H 1.72190374 -1.29851236 1.11541950
H 1.97566472 0.33584008 0.48630314
H 0.45560165 1.46939989 1.04493077
H -0.24262346 -1.46613643 -0.76457690
H 2.22645225 -1.04883304 -0.55856375
H -2.28850973 -0.34555298 -1.00059410
H -2.37146703 1.29712771 -0.68102767
