12

C 1.3995335 -0.29381436 0.8828508
C 0.33585918 -0.5055629 -0.18721396
C -0.5888021 0.69484574 -0.3199887
O -0.21861793 1.8348612 -0.11464395
N -1.8665242 0.40024626 -0.7012177
H 2.1117213 -1.1239803 0.88984656
H 1.9420424 0.63696116 0.6984108
H 0.94825035 -0.22317614 1.87768
H -0.2481062 -1.4129983 0.012686584
H 0.8127391 -0.6485552 -1.16556
H -2.1429055 -0.5295452 -0.9676667
H -2.4851902 1.1707181 -0.90518355
