12

C -0.13067855 1.5554667 0.49527872
C 0.03463869 0.51292354 -0.61156696
C -0.17569481 -0.85388535 -0.21578173
O -1.4422492 -1.1038831 -0.15748939
N 0.70611113 -1.8372638 -0.022970641
H 0.91108537 0.69167656 -1.2389433
H -1.4235716 -0.04953155 -0.7344282
H -0.31658375 2.5422995 0.059694342
H 0.38510045 -2.7889802 0.08316981
H 1.686554 -1.6377842 0.059703164
H 0.75412875 1.6498201 1.1460639
H -0.98884046 1.319142 1.1372705
