11

N -2.0032408 -0.51906896 -1.9135237
C -1.5752547 0.028130958 -0.99025005
C -0.997836 0.69775677 0.19490294
O -0.3109668 -0.20449874 1.0300235
C 0.8048128 -0.8248788 0.43781042
C 1.8538059 0.15602145 0.077507995
N 2.6504855 0.9419146 -0.20533937
H -1.8038193 1.1197593 0.79758453
H -0.34422636 1.5141093 -0.14385733
H 1.1991138 -1.5208658 1.1801027
H 0.5271259 -1.3883799 -0.46496135
