11

N -1.1429026 0.40823832 1.4823365
C -0.52298504 -0.52965206 0.9874363
C 0.612397 0.551256 0.921992
O -0.07260534 -0.010432977 -1.20314
C 0.4461284 1.1180768 -0.4839074
C -0.49274495 -1.1301916 -0.4121448
N 1.2884648 -0.36614117 1.3788419
H 0.2189858 -1.9527231 -0.5076958
H -0.2562453 1.9524871 -0.53154784
H -1.4945542 -1.426571 -0.726865
H 1.4160612 1.3856537 -0.9053061
