9

N -0.60850835 0.79142725 -0.23801698
C 1.1264728 -0.54012334 0.8375411
C -0.5399498 -0.4567069 -1.1679833
C -0.22795008 -0.5330852 0.2950016
N 2.2165375 -0.580727 1.2179248
H -0.955424 -0.9828417 0.968746
H 0.40852058 -0.33215913 -1.7076868
H 0.11801954 1.5011516 -0.18405274
H -1.5377183 1.1330646 -0.021473886
