11

N 1.4391549 0.8093986 1.8024765
C 0.02686786 0.16534786 -0.9777675
O 1.2171112 -0.19289982 -0.3355097
C 0.548702 0.13850835 1.3597584
C -1.053492 -0.5282995 -0.13361663
O -0.65051305 -0.33659443 1.2582479
H -1.0674728 -1.6038284 -0.3033781
H 1.7411909 0.5951585 0.55855656
H -2.0524063 -0.0992814 -0.23821184
H -0.0087925615 -0.20422842 -2.0090327
H -0.14035043 1.2567188 -0.98152256
