11

N 2.2608712 -0.6418049 0.724876
C 1.1074793 -0.3154189 0.34097287
O 0.51164705 -0.9002971 -0.72181785
C -0.85531306 -0.49941698 -0.7559401
C -0.8380595 0.8039055 0.035558708
O 0.28787696 0.62185204 0.89393187
H 2.5484107 -0.06005495 1.5050386
H -1.471646 -1.2670914 -0.27417022
H -1.1567775 -0.38087678 -1.7976011
H -0.6682202 1.6779727 -0.6021721
H -1.7262686 0.961231 0.6513232
