10

N -1.0499071 0.26259628 0.36275303
C -0.66007245 -0.9683175 -0.09973666
C 0.6684649 -0.88562685 -0.43943942
C 1.0941176 0.4456 -0.1701279
C 0.010858081 1.1298686 0.3238064
H -1.9742658 0.4931389 0.683095
H -1.3561667 -1.7924696 -0.14674655
H 1.2758217 -1.686268 -0.83772606
H 2.0858657 0.84682065 -0.3243038
H -0.0947161 2.1546574 0.648426
