10

C -0.01872783 -1.09431575 0.43377589
O -1.17090546 -0.58932148 -0.07667841
C -0.91946833 0.72641395 -0.55823964
O 0.26800922 1.16710253 0.04183713
C 1.01938683 0.01395979 0.35097490
O 0.09901462 -2.20938961 0.84271183
H -1.73740349 1.38210104 -0.25793420
H -0.83063563 0.68197465 -1.65277403
H 1.75577600 -0.23097000 -0.42778425
H 1.53495430 0.15244485 1.30411092
