10

C -0.98986816 0.3837715 -1.3124053
O -0.5399503 -0.39198884 -0.19271046
C 0.52146137 0.09565584 0.43481848
O 1.1141921 1.1056608 0.14741157
C 0.9641597 -0.76542085 1.6145666
O 0.40875858 -1.7734795 1.9480726
H -1.8507081 -0.15413904 -1.7047735
H -1.277528 1.388371 -0.99017495
H -0.20250356 0.45654643 -2.0682502
H 1.8519866 -0.34497738 2.1234453
