10

C -0.37505347 0.9383214 0.58338237
O -0.92312574 1.8370559 1.1556276
C 1.0833615 -0.13834113 -0.7229381
O 1.0894176 -1.2307891 -0.03779848
C -0.94415385 -0.41040224 0.4512483
O 0.81930643 1.094887 -0.086290516
H 0.059405018 -0.5072274 -1.1387777
H 1.8540361 0.018555364 -1.4896661
H -1.9743032 -0.4385304 0.09453724
H -0.68889046 -1.1635298 1.1906753
