10

C 0.8542447 -0.6057365 -0.25666517
O -1.2988137 0.19285491 0.009431108
C -0.60942304 -0.78837955 -0.6269772
O -1.1112862 -1.6034365 -1.3399268
C -0.3732354 1.037584 0.684723
O 0.827699 0.3247601 0.8032141
H 1.3015397 -1.5423893 0.08401783
H 1.4097542 -0.23471725 -1.1298658
H -0.24618103 1.9539077 0.09135997
H -0.7542981 1.2655524 1.6806891
