11

O -0.89170885 -0.22190651 -2.4327579
C 0.04886797 0.6772073 -0.4326411
C -0.09333468 0.52922666 -1.9448841
C -0.14967966 -0.6112668 0.411503
O 0.25893798 1.7494742 0.074593775
C 0.3205057 -0.41719058 1.7589588
O 0.17252824 -1.7494552 -0.0939638
H 0.5177573 1.2481806 -2.5249677
H -1.2718642 -0.42145136 0.66802675
H 0.29535386 -1.281881 2.4164898
H 0.79263645 0.49906257 2.099642
