11

O 0.33982714 2.09971422 -1.44557698
C 0.10278780 0.99337825 -1.84906241
C -0.08112670 -0.19323322 -0.90495745
C 0.20969603 -0.67740874 1.60647345
O 0.08342658 -1.31772292 -1.31492610
C -0.49967774 0.09869348 0.53555691
O -1.41021068 0.87323554 0.71093632
H 0.06905688 0.72039379 -2.92078657
H 0.18845068 -1.74470973 1.36852016
H 1.26218696 -0.36972429 1.64335436
H -0.26441700 -0.48261608 2.57046827
