11

O -1.35344821 0.86521259 -1.79995225
C 0.09126137 0.18835403 1.27668200
N -0.82621233 0.85497644 0.44440914
C -0.69631141 0.45754397 -0.86869852
C 0.42843748 -0.58174396 -0.86880817
C 0.84616646 -0.65780935 0.57546623
H -1.49710106 1.54397175 0.74373256
H 1.22924235 -0.25519319 -1.54127601
H 0.04952277 -1.52978751 -1.26560696
H 1.62642379 -1.29312650 0.96656466
H 0.10201846 0.40760184 2.33748769
