11

C 1.6794175 -0.15691456 -0.67348003
N 2.8118756 0.15759705 -0.98829216
C -1.79919 0.09441333 0.4506614
C 0.421981 -0.45115936 -0.43475983
N 0.123706326 1.3618628 1.0662465
N -0.35230273 0.44180906 0.43904692
H -2.2670374 0.79963887 1.1338949
H -0.04854625 -1.3311689 -0.8494012
H -1.9258108 -0.9334927 0.7996368
H 3.558285 -0.1747089 -0.38315842
H -2.2023783 0.19212337 -0.5603947
