10

C -0.12483276 -0.68071723 -0.716222
O -0.26908767 -1.1419566 0.6272247
C -0.011087382 0.8341975 -0.5467346
O 0.42276514 0.9699946 0.8053767
C 0.1569941 -0.17843786 1.4794077
O 0.28234255 -0.31935155 2.6538026
H -0.99663234 -0.99520254 -1.2901794
H 0.7309544 1.2931356 -1.2027605
H 0.78102905 -1.1230067 -1.1453533
H -0.9724452 1.3413447 -0.66456234
