10

C -1.0108193 -0.8753525 0.6817879
O 0.64744675 0.85982335 -0.37976828
C 0.3757384 1.0292276 0.9418839
O -0.21746504 -0.079974204 1.468064
C 0.36105624 -0.37329468 -0.98922354
O 0.6775599 2.0000284 1.5541785
H -0.16213652 -1.2527462 -0.2966786
H 1.3031206 -0.8761939 -1.2386637
H -1.6944598 -0.20627107 0.116749346
H -0.28004116 -0.22524707 -1.8583295
