10

O -1.2864418 -0.7300362 0.59790564
C 0.83853775 0.32399705 -0.23525679
C -0.47685987 -1.527955 1.2610525
O 1.2760357 1.3379914 -1.0909228
C -0.66686034 0.24187575 -0.23044263
O -1.3888458 0.94024545 -0.8738664
H 0.4917012 1.7392956 -1.4952428
H 1.1810584 0.4973361 0.7954423
H -1.2065682 -2.16666 1.8068153
H 1.2382433 -0.65608996 -0.5354845
