10

O 0.44640034 -0.11766047 -1.6250092
C -0.2696728 0.7540344 0.5890183
C 1.3685391 -0.73471165 -0.98698294
O -0.76580507 0.3897064 1.8392361
C -0.27717292 -0.44135708 -0.3496664
O -1.094629 -1.3149822 -0.3195394
H -0.8941603 1.5192084 0.09502379
H 0.7371793 1.155869 0.7201098
H 2.2287357 -0.9678898 -1.6433659
H -1.4794143 -0.24221705 1.6811756
