10

O -0.75435309 -1.36647076 -0.33028123
C 0.29942534 -2.01188367 0.12232708
C 0.55941460 0.69183413 0.26811598
O 0.46480654 2.08469820 0.21584437
C -0.67458559 0.05057956 -0.31414391
O -1.60340767 0.64744113 -0.76583318
H 0.67958133 0.33942996 1.30304530
H 1.43534365 0.32692122 -0.28871309
H -0.02664092 -3.06823638 -0.00446057
H -0.37958404 2.30568666 -0.20590078
