11

C -0.15301752 -0.49065357 1.7979231
N -0.41524968 0.076013744 0.49192095
C 0.42660698 -0.07698174 -0.5453562
O -0.16545735 0.6257827 -1.6486887
C 0.506386 0.60669625 -2.7840626
O 1.4632889 -0.6631595 -0.6012591
H -1.248751 0.62275565 0.3285983
H 0.77262014 -1.0669197 1.7326262
H -0.9706695 -1.152241 2.0968864
H -0.18194224 1.2191474 -3.4128752
H -0.03381461 0.29955977 2.544287
