11

N 1.9824445 -0.9593245 -0.3793761
C -1.402587 -0.118068404 -0.29293725
C 0.42101145 0.78313494 0.6220203
N -0.9520503 0.86149466 0.46825898
C 0.8746723 -0.34864426 -0.11307822
N -0.33560574 -0.8555162 -0.6536528
H 0.9683542 1.5026013 1.2081983
H -1.5386251 1.5714254 0.8790023
H 2.753336 -0.4747286 0.06804273
H -2.4309678 -0.28628293 -0.57029927
H -0.33998245 -1.6760916 -1.2361789
