11

N -0.36917776 -0.29173917 1.9542567
C -0.8003594 0.4804466 -0.10170014
C 0.19672813 -0.089404374 0.7770467
N -0.22013243 0.119454265 -1.3705002
C 0.9886594 -0.4119854 -1.1277603
N 1.3298777 -0.52422506 0.15176696
H -0.93635464 1.561991 -0.01284449
H 1.621768 -0.7615165 -1.9369962
H -1.4174894 0.06207381 1.171684
H -0.5817655 0.32563335 -2.2848892
H 0.18824553 -0.4707285 2.779936
