11

N 0.29634711 1.49882124 0.73284783
C 0.85056506 2.49578212 1.00671883
C -0.35856644 0.29065172 0.38547418
C 0.46611134 -1.00631982 0.46613379
C -0.45077536 -0.05075882 -1.11295574
O 0.13001876 -1.33829139 -0.88456020
H -1.31517126 0.23382308 0.90935358
H 0.18027904 0.58692920 -1.74304295
H 1.53992562 -0.83110645 0.60002715
H -1.45671137 -0.11831958 -1.53805949
H 0.11797770 -1.76121135 1.17806264
