11

O 1.1092131 -0.4181174 -1.2430203
C -1.3132733 0.91109216 -0.59183216
C -1.0716097 0.668933 0.7166647
C 1.501272 -0.96396255 -0.22318886
N -1.6981575 1.1396286 -1.7171409
C 0.8398491 -0.8202311 1.0811195
N -0.20808764 -0.11280999 1.3565613
H 1.2912908 -1.3570664 1.9161124
H -1.8003781 1.1672114 1.375404
H -1.0517623 1.394097 -2.4410217
H 2.4016438 -1.6087747 -0.22965795
