11

O 0.24691385 -1.1671361 0.02528109
C 1.0966847 -0.08433009 -0.022521658
C -1.0964303 -0.9475248 0.047075786
C 0.44250187 1.2358229 -0.03851619
N 2.3558028 -0.20601726 -0.047915053
C -1.621976 0.2791562 0.027629556
N -0.8231191 1.4241256 -0.014447819
H -1.6577805 -1.8724025 0.080195345
H 2.636249 -1.1856328 -0.02775822
H -2.6943564 0.43326014 0.042674072
H 1.11551 2.0906787 -0.071696915
