10

C -0.05670685 0.033520833 -0.66073155
O 0.24458097 1.040274 -1.505346
C 0.4937059 0.2971131 0.72296125
O -0.03284978 -0.5981331 1.6707089
N -0.71074754 -0.9766022 -1.0431343
H -0.80930877 -1.6424582 -0.28452292
H -0.96864617 -0.3936188 1.7904745
H 0.32878426 1.3527083 0.98409915
H -0.06376053 0.75571465 -2.380079
H 1.5749484 0.13148126 0.7055697
