11

N 2.69876079 1.52810549 0.53474807
C -2.37251910 -0.78478449 -0.53005035
C -0.27808043 -0.25236838 0.56223157
C 0.81345214 0.00958318 -0.46843163
C 1.87121245 0.86126259 0.08356920
O -1.23549375 -1.16140025 -0.02919485
H -2.44905109 0.32133406 -0.30582542
H -0.79677548 0.67133046 0.84906617
H 0.38269368 0.50059755 -1.34847549
H 1.24733253 -0.94188475 -0.79553092
H 0.11846824 -0.75177591 1.44789354
