14

C -1.1579614 -1.3899693 1.0663351
N 0.55142856 1.1865357 -0.6928899
C 1.1438938 0.42565924 -1.7769954
O -0.44917253 -0.6806732 0.06858031
N -0.18346414 1.2114325 1.4786307
C -0.046969846 0.5806581 0.38400424
H -2.086913 -0.87214077 1.3393571
H 1.4355537 1.125712 -2.5637524
H -0.7115934 0.69641465 2.1720428
H 0.4072186 -0.26572996 -2.1918685
H -0.54698664 -1.536825 1.965645
H -1.4009566 -2.3591547 0.62946916
H 1.0201166 2.0309174 -0.40628994
H 2.0258064 -0.15283637 -1.4722679
