14

C -1.9658734 1.2994859 -0.4982047
N 0.8993411 -0.993261 0.42346168
C -0.17851281 -0.22564135 0.06214723
O -0.0369441 1.0288538 -0.07958735
N -1.3837186 -0.6747986 -0.13218859
C 2.235703 -0.43098554 0.414109
H -1.6245172 -1.6409717 0.06688375
H 2.6627755 -0.36213902 -0.5952519
H -1.8919479 1.231599 -1.5756158
H -1.7020838 2.273432 -0.09833867
H 0.81553787 -1.9801304 0.24403815
H 2.8918068 -1.0420858 1.0388409
H 2.1864889 0.57773966 0.83001494
H -2.9080548 0.93890303 -0.100308254
