14

C 2.1226554 -0.16504925 -1.1963303
N 1.123297 -0.5434274 -0.21409105
C -0.035928234 0.20495419 -0.116368085
O -0.19183499 1.2709221 -0.6865425
N -0.99852145 -0.36930364 0.6904335
C -2.1558483 0.42519996 1.0625542
H 1.8438727 -0.4479173 -2.2195156
H 3.0716593 -0.64114714 -0.9413392
H 2.2473204 0.9179999 -1.1652818
H 1.021583 -1.536069 -0.05549744
H -0.65749454 -0.99964166 1.4035339
H -2.9277043 -0.23483309 1.4652921
H -1.9210521 1.1995229 1.8035368
H -2.5420036 0.9187894 0.16961567
