10

O -0.2996002 -0.27507445 1.8932421
C 0.7629709 1.0096012 0.06605733
C 0.24712315 -0.31439465 0.6025366
N 0.2586623 0.98867905 -1.137838
N -0.61448354 -0.08936827 -1.5265383
C -0.6771676 -0.8159178 -0.47775403
H 0.07678248 0.5045323 2.3201394
H -1.2816042 -1.7150366 -0.45427683
H 0.3984094 1.696811 -1.8455585
H 1.1289071 -0.98983175 0.5599904
