11

N 2.96007067 0.34080359 1.29153603
C 1.94535763 0.07170038 0.81311852
N 0.32053627 -1.57036913 0.11016606
N -0.11638170 0.68672135 -0.18600984
C -1.46955822 0.40678291 -0.62750444
C 0.66642371 -0.35112372 0.23500928
H -2.09352661 0.00580963 0.18008353
H 0.07986371 1.60104677 0.18974305
H -1.90948367 1.33145264 -1.00496263
H -1.44060090 -0.33059953 -1.43245258
H 1.05729911 -2.19222489 0.43127307
