11

N 3.1347995 0.30169803 -0.79261655
C 0.7165647 -0.33017936 -0.012424281
N 0.47843716 -1.382053 0.6648057
N -0.26487693 0.5378024 -0.400424
C -1.6044382 0.35856706 0.12666234
C 2.0553699 0.049473427 -0.47299662
H -1.9496782 -0.651721 -0.10277233
H 1.3267454 -1.923276 0.80652577
H -2.2660527 1.0807439 -0.35474193
H 0.015610078 1.4656826 -0.6762117
H -1.642481 0.49326205 1.2141937
