11

N -0.72911996 1.4974968 0.37943563
C -1.0050875 -0.6283552 0.3586917
N 2.1499813 0.903579 -0.7148558
N 1.0889723 -1.3330934 -0.5492472
C 1.292431 0.037640084 -0.50469697
C -0.10280612 0.43627933 0.05343644
H -0.4627584 2.4697618 0.27495214
H -1.6076736 -1.089074 -0.41774932
H -0.8888605 -1.1782457 1.2915431
H 1.938213 -1.7859039 -0.8863146
H -1.6732917 0.6699154 0.7148049
