11

N 1.28317 -1.1170206 -1.5055166
C 0.56627256 -0.4275249 -0.73379195
C -0.07163118 0.37673458 1.3221729
C -1.5348088 0.7419081 -0.16218561
C -0.79254085 0.07110898 -1.029129
O 0.9715476 0.016480837 0.5039643
H -0.5730293 -0.47012782 1.7972975
H -1.1755757 -0.1329411 -2.0243883
H -1.1132866 1.1471184 0.8714796
H 2.1778817 -1.3420959 -1.0722046
H 0.26200065 1.1363593 2.0323017
