11

N 1.1571947 -1.7990919 0.29965764
C 0.53985316 -0.71757084 0.10780205
O -0.8032765 1.112543 0.49904847
C -0.21414247 1.2207861 -0.76059884
C -0.66481894 -0.24133818 0.8901366
O 0.815562 0.23180345 -0.8255548
H -1.5492002 -0.8370756 0.62350816
H -0.9303964 1.0252943 -1.5718306
H 0.23021235 2.2121143 -0.8654802
H 1.9198039 -1.9092019 -0.36452746
H -0.50079125 -0.29826337 1.967839
