11

C 1.81790767 -0.06808455 0.52791111
C 0.40612984 0.00668071 0.10429662
C -1.31565679 0.35731026 -0.67758482
O -0.00137273 0.90888944 -0.86073564
C -0.78383826 -0.57180284 0.34104826
N -2.32489497 0.74447951 -1.29381727
H 2.45029797 -0.32505312 -0.32801848
H 2.14589158 0.90431279 0.91166641
H -3.14454044 0.21276815 -1.00608628
H -1.18788684 -1.34601968 0.97438924
H 1.93796288 -0.82348084 1.30693042
