10

N 0.16862372 -0.17410946 -1.5764943
C 0.0040222267 0.10311609 -0.14579569
C -0.18383056 1.3780212 0.29174507
O -0.28221458 1.0846255 1.6776427
C -0.14959714 -0.2376153 1.8628318
N 0.033170052 -0.9217993 0.78426594
H -0.2027577 -0.6140968 2.875258
H 0.09189761 0.75350744 -2.0117202
H -0.55686295 -0.78924704 -1.9516208
H 1.0775492 -0.5824021 -1.8061124
