11

C 0.8486596 0.37652886 0.581779
C -0.795339 -1.2569022 -0.41379514
C -0.35895815 0.19543287 -0.29876775
O 1.4532671 -0.4794862 1.1588761
C 1.5907748 2.8617 0.7803165
N 1.2568941 1.7330369 0.6940143
H 0.001128439 -1.8777729 -0.83370936
H -1.0574324 -1.6701427 0.56398726
H -0.112373285 0.62344295 -1.2788578
H -1.1562865 0.8274393 0.111609265
H -1.6703348 -1.333277 -1.0654523
