11

C 1.2977654 0.6373424 0.5743053
C 0.10232657 -0.29050785 0.41182968
C -0.7479811 0.051190797 -0.7827061
O -0.54481053 0.94863224 -1.5589695
C -1.9305125 -0.8322189 -0.9748574
N -2.8431327 -1.5235126 -1.116964
H 1.9463174 0.6004349 -0.30591545
H 1.8825699 0.34131137 1.4490926
H 0.97584563 1.6739084 0.7057897
H -0.55130965 -0.2689017 1.2953112
H 0.41292167 -1.3376791 0.30308378
