11

C -0.41557330 2.05720116 -2.63135090
C -0.67074593 0.18170110 -0.84708237
C 0.42227636 0.20660284 0.18789644
O -1.58758473 -0.58456466 -0.90705291
C 0.27557798 -0.89095313 1.23038731
N -0.53458749 1.20404723 -1.82464848
H 0.41252837 1.20417050 0.64543001
H 1.08926983 -0.82563973 1.95822488
H 1.37680679 0.13250971 -0.34778610
H 0.30540610 -1.88176778 0.76895943
H -0.67337388 -0.80330729 1.76702251
