11

C -0.99000865 0.89381236 -0.11566067
C 0.057095844 -0.19355962 -0.172984
C 0.6764094 -0.739667 1.0441916
O -0.3132066 -1.465247 0.33444512
C 0.8387535 -0.24344362 -1.4086543
N 1.4496642 -0.2484129 -2.3886404
H -1.7203561 0.7628054 -0.91915065
H -1.5127653 0.8472889 0.84352463
H -0.5278546 1.8787175 -0.22411405
H 1.6795937 -1.159231 1.0039041
H 0.36267456 -0.33306316 2.003139
