10

O -1.4584968 -1.6683315 -0.9745298
C -0.38966218 -0.89791185 -1.0845695
N 0.6473944 -0.7134331 0.944241
C 0.12700896 1.2026852 -0.26365215
C 0.8319325 0.5538312 0.8136427
N -0.4849753 0.38731208 -1.0766054
H 1.2478001 -1.1206983 1.6677595
H 1.5508466 1.136862 1.3947555
H -2.2684553 -1.1421747 -0.93389755
H 0.196607 2.2618587 -0.48714444
