10

O -1.9646271 0.9889542 -0.18848702
C -0.80488837 0.35261515 0.04047979
N -0.477213 -0.29825252 1.1181879
C 0.7990235 -0.7654407 0.8572399
C 1.2170684 -0.38355988 -0.3800066
N 0.15794747 0.34859622 -0.9075449
H -2.4940798 0.86158437 0.6110833
H 1.3369006 -1.3525107 1.5886188
H 2.1293917 -0.5466516 -0.9317227
H 0.10047665 0.7946653 -1.8078485
