11

N 0.47834638 -1.2808124 0.4931697
C 1.4102122 2.121733 1.2463578
C -0.117002435 0.8858335 -0.29684925
N -1.0840938 -1.1907109 -1.2567939
C -0.23383084 -0.5618471 -0.32672638
N 0.5893594 1.530815 0.5429647
N 1.0944124 -1.9358168 1.1878437
H -1.864612 -1.6830157 -0.83818644
H 1.0103027 2.4826515 2.203347
H -0.60058093 -1.7960585 -1.9088515
H -0.6825131 1.4272287 -1.0462754
