11

N 0.9945355 -0.84613246 -1.527633
C 0.2502969 -0.22280164 -0.5562896
C 0.5867306 -0.27809703 0.8134856
N -0.12310464 0.3814052 1.702855
C -1.1529151 1.0875623 1.2084141
N -1.5053872 1.157909 -0.06455972
N -0.79825574 0.48732635 -0.9601785
H 1.5282644 -1.657808 -1.2669309
H 0.5430839 -0.90155596 -2.4296634
H 1.4347535 -0.8604642 1.1685361
H -1.7580023 1.6526564 1.9119642
