11

N -1.4485152 0.75897944 -0.2677896
C -0.19666342 1.0707048 -0.10335402
C 0.71474534 -0.032523256 0.06294395
N -0.49337068 -1.7642199 -1.1370316
C -2.333737 -0.0160226 -0.62440836
N 0.26367015 -1.1014597 -0.58418024
N 1.8991231 -0.014680277 0.8085161
H 0.123755224 2.1037567 -0.14927821
H 1.882718 -0.5843396 1.6466691
H -3.1479104 -0.22576658 0.07737318
H 2.7361846 -0.19442904 0.2705398
