10

N 1.4809319 0.4989982 0.9201142
C 0.2243231 0.6209247 0.37732166
O -0.44801635 1.6269996 0.44423205
N -0.23213919 -0.5478291 -0.23248185
C -1.4595529 -0.6401283 -0.87082696
O -1.85507 -1.6695111 -1.3599861
H 1.8763276 1.3741807 1.2310619
H 2.131962 -0.16362682 0.5299305
H 0.2888001 -1.4116002 -0.16301279
H -2.0075662 0.3115921 -0.8763525
