10

N 0.27939748 0.35678921 0.24622170
C -0.53648168 1.33106387 0.23234320
O -0.22272438 2.50820685 0.75905319
N 0.71110796 -1.82341514 -0.27215218
C -0.21513880 -0.83074463 -0.35775149
O -1.30601759 -0.96065183 -0.87364537
H 0.67842591 2.42844257 1.11051373
H 1.63042280 -1.61965879 0.08134172
H 0.51949379 -2.69552791 -0.73245510
H -1.53848543 1.30549557 -0.19346929
