10

N 0.13033414 -1.8267614 -0.7419837
C -0.10166795 1.3297392 0.5787783
O 0.6298547 2.2872674 1.1351478
N 0.41705203 0.23673286 0.18976772
C -0.5064612 -0.67990005 -0.38162863
O -1.6957374 -0.48709214 -0.5282102
H 1.5447781 1.9643832 1.160041
H -0.3937297 -2.5292203 -1.2329868
H 1.1327791 -1.881747 -0.6811969
H -1.1572018 1.5865982 0.50227153
