11

C 0.08579866 0.7076558 0.4428848
C 1.3831905 0.1858827 -0.003358933
C -2.2576845 -0.49249926 0.5646486
C -0.96702784 -0.016267926 0.6096666
O 2.0075512 -0.64201427 0.6302119
N 1.8376924 0.72994584 -1.184855
H -2.6378014 -1.0925677 1.3857427
H -0.8371933 -1.1720248 0.7418438
H -2.8786733 -0.38274822 -0.32305127
H 1.4496075 1.6088575 -1.4834738
H 2.8145406 0.56578046 -1.3802594
