11

C 0.62670702 0.97682497 1.97099718
C 0.42908087 -0.06775555 1.14558983
C 0.64146211 0.22234898 -0.23304294
C -0.01038024 -0.68634480 -1.15866754
O 0.56167505 -1.76195784 -1.26677062
N -1.10247848 -0.31044290 -1.88831567
H 0.02700079 -1.01552327 1.50895680
H 1.09963284 1.87720467 1.58433627
H 0.31868665 0.96210350 3.01313049
H -1.29964401 -0.87386786 -2.70483537
H -1.29174252 0.67741009 -1.97137753
