11

N 1.3694185 -0.6641169 2.5911934
C 0.6629674 -0.67228615 1.6795869
C -0.24212445 -0.65390444 0.5156908
C -0.53310037 0.74166214 -0.07488072
C 0.2413023 0.21990584 -1.2914659
O 0.40322083 -1.0763919 -0.6838686
H -1.1202912 -1.2660978 0.74879974
H -1.5930458 0.9300719 -0.24338959
H -0.08316732 1.5791667 0.458759
H -0.31518698 0.16088873 -2.2296112
H 1.2100072 0.7011022 -1.4708136
