10

N 0.14369896 -1.21811985 -0.69207474
C -0.99415249 -0.85414381 -0.21963619
C 1.08088780 -0.15635723 -0.34855480
C -0.96747633 0.44143878 0.47434817
C 0.29820476 0.87908438 0.40430234
H -1.81966715 0.92074667 0.94031024
H -1.88024450 -1.47361269 -0.33782781
H 1.90463995 -0.57718006 0.24144048
H 1.52857970 0.23948499 -1.26809535
H 0.70552921 1.79865876 0.80578769
