10

N 0.6838783 -1.0654842 -0.42613903
C -0.024423495 1.0787112 0.1264694
C -0.64589113 -1.0599229 -0.1903287
C 1.0995798 0.29477814 -0.17461056
C -1.1225475 0.2182419 0.10597349
H -2.152486 0.48145866 0.31476933
H 1.289887 -0.6958849 0.6201746
H 2.0912662 0.5976647 -0.48815614
H -1.198613 -1.9907391 -0.21936661
H -0.020649882 2.1411765 0.3312142
