10

O 0.022110907 0.3245064 2.0205824
C -0.024702786 0.118842326 0.6882708
C 0.89044136 -0.2864384 -0.2553785
C 0.1445823 -0.27931014 -1.4592637
N -1.1083127 0.09410361 -1.27807
N -1.1911721 0.3342707 0.048319735
H 0.9123203 0.13335715 2.3361685
H 1.9284811 -0.5444068 -0.10290802
H 0.4854788 -0.5352145 -2.45269
H -2.0592272 0.6402897 0.45496863
