11

N 0.97451083 1.18831118 -0.36001993
C 0.47188427 -0.04202797 0.18403056
O -1.42907371 -0.99366717 0.19341451
C -0.32165367 -0.96632334 -0.74999676
C -0.82743840 -0.08056710 1.01219104
O -1.28173435 0.44033724 1.98016113
H 1.27884193 -0.56720570 0.70419366
H 0.07296319 -1.96801322 -0.91941733
H -0.62529321 -0.49915752 -1.69059954
H 0.21681104 1.77079641 -0.70234807
H 1.47018243 1.71751724 0.34839039
