14

C -2.3935926 -0.076296546 0.97299796
N -1.3510611 0.14278418 -0.011860301
C -0.034381993 0.039329942 0.3451419
O 0.3529461 -0.07748913 1.4924681
N 0.84277093 0.106827244 -0.7335473
C 2.2156851 0.0044253403 -0.59313595
N 2.9632802 0.10981165 -1.6148293
H -2.040168 0.29535386 1.9346677
H -2.6481903 -1.1387079 1.0805497
H -3.2887547 0.4776713 0.68076354
H -1.5948079 -0.014835634 -0.97765577
H 0.5215103 0.29714048 -1.6725835
H 2.5198257 -0.16715157 0.44038492
H 3.9349387 0.0011367984 -1.3433621
