14

C -0.63207814 0.92669686 0.23663926
N -1.32376598 1.91239953 -0.15456549
C -0.14090261 -1.40388385 0.97210640
O 0.74938682 1.09608887 0.24331152
N -1.01682679 -0.26186114 0.78588531
C 1.43135611 0.69510151 -0.84553290
N 0.93418094 -0.02313638 -1.75864880
H -0.68240139 -2.15824576 1.54960265
H -1.99986788 -0.46135422 0.68441643
H -2.31828836 1.73066711 -0.02697123
H 0.17023857 -1.83073008 0.01492839
H 1.63660873 -0.20517823 -2.47347064
H 0.73938612 -1.10409886 1.54497482
H 2.45297429 1.08753466 -0.77267612
