11

O 0.08236140 0.97729402 0.83010566
C -1.55686285 -0.40030299 -1.91587253
N 1.69978233 -0.55741998 0.29215978
C 1.35613630 0.61475765 0.61995134
C -0.90055070 -0.04389372 0.64314318
C -1.24353898 -0.23859865 -0.76873874
H -1.82879675 -0.54745380 -2.93776830
H 2.00305622 1.48051725 0.79148112
H -0.54491084 -0.98402062 1.07268377
H 2.70727600 -0.61240614 0.17576676
H -1.77395220 0.31152682 1.19708761
