11

O 1.7519863 -0.9201569 -1.8336054
C 0.731707 -0.26844788 -1.9170874
N -0.03250046 0.08507674 -0.85387623
C 0.34056687 -0.3216523 0.48987043
C -0.5793217 0.2538576 1.4694641
C -1.3443347 0.7258219 2.2663352
H 0.3239344 0.10285838 -2.8767295
H -0.8785839 0.6184874 -0.99308497
H 0.33250347 -1.4161237 0.5641601
H 1.3669794 0.0028998652 0.69568986
H -2.012937 1.137379 2.9888635
