11

O -1.219637 0.30198836 0.6009306
C 1.5788729 0.21384297 0.26664665
N 0.75173223 1.0669693 -0.30900493
C -1.3471543 -0.96297354 0.29587018
C -0.5868405 1.113068 -0.35593164
C -1.4865733 -2.134893 0.074395135
H 2.6338084 0.31379637 0.056150753
H -1.620165 -3.1773136 -0.11144775
H 1.1876843 1.790649 -0.86961067
H 1.1848559 -0.5857982 0.8766997
H -1.0765836 2.0606637 -0.52469796
