11

O 0.6288741 0.92495877 0.9940019
C 0.5486187 0.63186204 -0.39154303
C -0.73831296 -0.1329715 -0.5555858
N -1.302626 -0.22950512 0.7707494
C -0.4728976 0.35389203 1.5338824
C 0.5943822 -0.8154293 -0.7620842
H 0.9413632 1.4240402 -1.0161958
H -1.4346457 -0.034946788 -1.3775537
H -0.55721223 0.45650655 2.6105359
H 0.9179579 -1.5377105 -0.020550879
H 0.87449807 -1.0406963 -1.7856562
