11

O -0.8292195 0.2169562 1.2553812
C -0.59051627 -0.26885974 -0.9990795
C -0.34465066 0.7891439 -0.023595186
N -0.48882845 -1.4150944 -0.34251627
C 1.137643 0.6194197 -0.013701132
C -0.42611676 -1.010477 0.9643014
H -0.7219678 -0.19866 -2.0739508
H 1.5928383 -0.27713892 -0.4147645
H -0.7214364 1.7971765 -0.18261501
H 1.7792128 1.4959793 0.06976789
H -0.3869581 -1.7484454 1.7607719
