11

O -2.2955935 -0.62891793 -0.4279047
C -1.1535742 -0.37647375 -0.16278899
C 0.11441595 -1.2131482 0.044114903
N 0.7551752 -0.046235017 0.73040587
C 0.8579849 0.9814488 -0.28699127
C -0.44227868 0.8130525 0.41286707
H -0.061687265 -2.0383358 0.740203
H 0.6589727 -1.5767387 -0.8314843
H 0.9609741 0.6965979 -1.3328913
H 1.4527942 1.836735 0.01958721
H -0.84718347 1.5520153 1.0948825
