10

N 0.6062746 -0.17318657 3.3020089
C 0.3501049 -0.026035355 2.184871
C 0.040729433 0.13658737 0.79928446
N -0.657086 1.1224161 0.2850904
C -0.70247805 0.8630351 -1.0539038
C -0.023484977 -0.2928377 -1.3493855
N 0.45239696 -0.75355697 -0.15356407
H -1.2225951 1.5215211 -1.7345577
H 0.15636992 -0.811372 -2.27685
H 0.9997683 -1.5865712 -0.0029936263
