10

N -0.1035669 0.15229586 -1.3196352
C -0.603482 0.27386704 -0.15477966
C -1.8739501 0.79958445 0.22181003
N -2.8897247 1.215027 0.5894604
C 1.6038971 -0.69383794 0.09547943
C 1.1813589 -0.41562274 -1.1689146
N 0.3395397 -0.22243607 0.8646632
H 1.7531269 -0.58325225 -2.073169
H 0.61548495 0.48955488 1.5441135
H -0.022683736 -1.0151802 1.4009718
