11

O 0.18678574 -1.9072903 1.12813
C 0.029358627 -0.76623166 0.41618872
C -0.876209 -0.36692613 -0.53644913
C -0.5030868 0.9649696 -0.9078029
C 0.5983398 1.314866 -0.17648676
N 0.9182202 0.24212375 0.63598406
H -0.50763816 -2.5218308 0.8618911
H -1.7026688 -0.9493218 -0.92154104
H -1.0069438 1.5811726 -1.6396767
H 1.1850197 2.220975 -0.15281554
H 1.6788224 0.18749434 1.2925782
