11

O 0.2658592 -0.75838906 -1.9614718
C 0.68630075 0.8112232 -0.052671146
C -0.6553553 -0.27154422 1.5795022
C 0.14308195 0.80773914 1.2795765
C 0.16467741 -0.25522202 -0.7082426
N -0.6913035 -0.9217954 0.15822665
H -0.90403414 -1.9074564 0.05737715
H -1.6367614 -0.400099 0.5643682
H 0.9022761 -0.22498055 -2.451952
H 1.3707508 1.5399433 -0.4745774
H 0.3545082 1.5805808 2.0098643
