11

O 1.4177183 0.42593974 -1.4415941
C 0.4798665 0.068472184 -0.5355379
C -0.28173396 -0.9971536 -0.2901365
C -0.9402139 0.5149696 1.4602009
C -1.111742 -0.70661855 0.89528793
N 0.1761484 1.0771354 0.46701926
H 1.5506313 -0.30402073 -2.0589275
H 0.9895228 1.3283025 1.0297967
H -0.18182607 1.9412295 0.06042815
H -1.8144472 -1.4348662 1.2846702
H -0.2839242 -1.9133898 -0.8712073
