11

O 0.9888992 -1.6233784 -0.55552506
C -0.28504255 0.7176098 0.75152457
C -0.31089607 -1.4449048 -0.4466256
C 0.83152807 1.3658655 0.10217974
C -0.95559984 -0.3888507 0.14248666
N 1.853313 1.3942772 -0.53071296
H 1.4734883 -0.8368239 -0.2784359
H -0.7779434 1.2718288 1.5384287
H -2.0398111 -0.4291397 0.17282991
H -0.8750055 -2.2726786 -0.87646455
H 0.097070254 2.2461946 -0.019685537
