11

C -1.1440983 -0.31458074 0.70547944
N -0.057513572 0.65800804 0.6411293
C 1.1035439 0.18639909 -0.08182846
C 0.83165 -0.16832866 -1.4971734
N 0.5566433 -0.42049825 -2.5900023
H -1.5150552 -0.6399399 -0.27761003
H -1.975388 0.12649289 1.2632912
H -0.8027622 -1.1976855 1.2566301
H -0.38707122 1.5172693 0.21701221
H 1.8856161 0.9526559 -0.06163893
H 1.5044351 -0.69979215 0.42471072
