11

C 0.52633222 0.04763371 -1.15459338
N -0.03052424 -1.04285616 -0.31679598
C -0.22004006 -0.42807813 0.97074085
C 0.16446776 1.38703190 -0.53407683
N -0.27327539 1.02799593 0.64359961
H -0.54333358 1.70775003 1.34291232
H 1.62489055 -0.00475915 -1.16867067
H 0.63527276 -0.59743266 1.63636239
H 0.19064688 -0.04553963 -2.19203928
H -0.94134039 -1.28121423 -0.69886246
H -1.13309629 -0.77053115 1.47142363
