11

C 0.34255144 -1.0619221 -0.471856
N 0.8523829 -0.17415527 0.44394532
C -1.2440509 1.0718544 0.17465523
C 0.33965686 1.1506238 0.3694353
N -1.6231441 0.010553966 -0.3046762
H 0.5273637 -0.8143775 -1.5159557
H 0.679196 1.6559356 -0.5416269
H 0.47369817 -2.1142986 -0.2144271
H 0.85344154 -0.54046345 1.3895236
H -1.8255769 -0.9267588 -0.57000583
H 0.62448144 1.743008 1.2409881
