11

C 0.93905276 1.0899628 -0.7667877
N 0.0877006 0.13741635 -0.08683485
C 0.3771665 -1.0688045 0.42303467
N -0.6994162 -1.6128448 0.9586785
C -1.6401289 -0.6637379 0.7366036
N -1.2181168 0.41437906 0.108516864
H 0.5780874 1.244394 -1.7863835
H 0.9246344 2.040255 -0.22895178
H 1.9574586 0.69896406 -0.79353577
H 1.3647134 -1.5084779 0.38614497
H -2.6711519 -0.77150595 1.049515
