10

N -1.46292199 1.28526915 0.62732161
C -0.28244453 -0.89717401 0.54836776
C 0.62092697 -1.45697751 -0.45922081
C 1.22563397 -0.16391302 -1.02211842
C -0.53649413 0.55741794 0.20603503
O 2.21572896 -0.05593414 -1.67743311
O 0.44818542 0.93303714 -0.68253452
H -1.17747550 -1.47608994 0.79476034
H 0.36995124 -0.94289945 1.44568712
H -1.42109045 2.21726404 0.21913489
