10

N 1.15369 -1.6661569 -0.4951202
C 0.733956 0.74239576 -0.23387288
C -0.24209349 1.5432861 0.3906853
C 0.4078708 -0.7196011 -0.14824049
C -1.3052208 0.47885993 0.71231216
O -2.3773696 0.6342948 1.2085129
O -0.8453419 -0.8052249 0.39217967
H 0.010843381 1.3024216 -1.0119948
H 1.7368795 1.0625157 -0.50863093
H 0.72678673 -2.5727909 -0.30583072
