10

N 1.393625 0.8303301 -0.749444
C -1.0546473 0.24348687 -0.8951231
C 0.27012482 0.11492724 -0.33298635
O -1.8016866 -0.40752393 0.07031073
C -0.9983999 -0.7576928 1.1094652
N 0.23678286 -0.4886407 0.97267276
H 1.2148056 1.8191166 -0.8414866
H -1.479275 -1.2474965 1.9472727
H 0.029193323 -0.762144 -1.1302291
H 2.1894774 0.6556373 -0.1504521
