11

O 1.7166318 -0.013022808 -0.8511181
C 0.35158822 0.4254021 1.0324761
C -0.5588949 0.6537754 -2.512454
C -1.1075302 -0.7843398 -0.5021124
N -0.85259753 -0.05023536 -1.6076671
C 1.5001591 0.59432185 0.19653861
N -0.65708166 -0.42909417 0.68292934
H 2.2419312 1.3017437 0.6151587
H 0.33480898 0.7730097 2.0585346
H -1.8282062 -1.5916215 -0.5642162
H -1.1408089 -0.87993896 1.4519305
