13

N -0.60405266 -0.8632171 -1.4397885
C 0.43954986 -0.040868673 -0.84074575
C -0.08163145 0.54995394 0.48038432
N -0.5273766 -0.5327107 1.3520436
C 0.9882266 1.3218079 1.1346151
N 1.8221962 1.9436438 1.6351076
H -0.51054806 -0.88172233 -2.449262
H -0.514608 -1.8236232 -1.1258488
H 0.68809193 0.78157634 -1.5188633
H 1.3613808 -0.60076416 -0.6295543
H -0.88760495 1.2597692 0.23638973
H -1.3468063 -0.9432396 0.9157105
H -0.8268177 -0.17060511 2.2498114
