13

N -1.4525715 -0.47314993 0.24297732
C 0.19377741 -1.7721215 -0.91037863
C -0.23823401 -0.4096298 -0.5592326
N 0.53998786 -2.8343003 -1.2049904
C 0.87193334 0.29826295 0.23450509
N 0.3915082 1.6163955 0.6317764
H -0.03126568 1.5690627 1.553127
H 1.1434823 -0.33734557 1.0892903
H -2.1894646 -0.9598682 -0.25650445
H -0.3761534 0.14251304 -1.501539
H 1.1580654 2.2752874 0.70390236
H -1.7608441 0.4815896 0.38755852
H 1.7497784 0.40330392 -0.41049194
