13

N 0.92406854 -1.49913837 -2.58370440
C 0.38777937 -0.98696242 -1.69772963
C -0.30585211 -0.31598056 -0.58643320
N -0.72888348 -1.30599252 0.39494944
C 0.63795283 0.70107438 0.07571080
N -0.04739177 1.29772072 1.21607134
H -1.14837480 0.24552152 -1.01851623
H -1.33345867 -2.00045274 -0.03119841
H 0.88374427 1.47712787 -0.65572223
H 1.56523801 0.18045298 0.35408167
H 0.27496813 2.24470152 1.37812718
H -1.27403692 -0.81425746 1.09385405
H 0.16424628 0.77618537 2.06050920
