9

O 1.6783657 0.931393 0.607026
C 0.5626472 0.30859053 0.19303155
N 0.42997953 -0.24762005 -0.99938804
N -0.8086837 -0.72829056 -0.9563801
N -1.4800133 -0.53083795 0.15592434
C -0.6258075 0.13735308 0.9238878
H 2.3261545 0.8929784 -0.10916414
H -1.2073596 -1.2202588 -1.738558
H -0.87528294 0.45669228 1.9236206
