11

N 1.3453817 0.5677184 1.8389643
C 0.64214987 0.2655824 0.8345304
C -0.7669133 -0.17792405 0.8552771
C -1.1575531 -0.39653414 -0.39744985
C -0.012986533 -0.107740656 -1.3245759
O 1.0555865 0.29596856 -0.46935847
H 2.2838647 0.84790653 1.5553015
H -1.3273197 -0.28180927 1.7733494
H -2.1293967 -0.7279196 -0.74081266
H -0.23324181 0.7026326 -2.0287266
H 0.30042854 -0.9878808 -1.8964994
