11

N 1.32635583 0.94567016 1.53037472
C 0.66995343 0.37475167 0.62005366
C -0.83823574 0.35594470 0.45790645
C -1.00065440 -0.46684855 -0.78874759
C 0.21011019 -0.81837329 -1.20570462
O 1.23744275 -0.34891914 -0.41244821
H 2.32518765 0.80470661 1.40733196
H -1.30753168 -0.09047690 1.34068686
H -1.93687173 -0.72816988 -1.25984432
H -1.21888734 1.37800071 0.36511959
H 0.53313120 -1.40628610 -2.05472868
