11

N 0.89459264 1.2238791 1.642371
C -0.7563638 -0.5934899 -0.95763415
C 0.46520507 -1.1041168 -0.85563725
C 0.48594508 0.48046422 0.71186686
C -0.883598 0.5046577 0.059911016
O 1.2455862 -0.50844747 0.1145372
H 1.8531631 1.0019358 1.8964558
H -1.5240307 -0.9124215 -1.6473399
H -1.0749009 1.4903818 -0.37581223
H 0.95580137 -1.9024792 -1.396709
H -1.6614002 0.3196361 0.8079905
