11

N -1.5666085 -0.24484421 1.780637
C -0.07665254 0.30736122 -1.2890109
C -0.7177158 -0.17154533 0.8388202
C 1.0917121 -0.14651977 -0.5872053
C 0.6650976 -0.49848762 0.7244229
O -1.0972149 0.36198422 -0.46820906
H -0.19231918 0.66185635 -2.3053324
H 1.1471614 1.0494944 -0.62373275
H 1.2484788 -0.9008759 1.5331203
H 1.9856824 -0.49831837 -1.0949013
H -2.4876215 0.07989499 1.4913918
