11

C -0.98138310 0.88869354 -0.13013016
C 0.06188296 -0.19751579 -0.15868228
C 0.68486154 -0.74177683 1.05004457
O -0.31541152 -1.45781958 0.33027538
C 1.39596449 -0.21285480 -2.37417908
N 0.81276031 -0.23532539 -1.35420776
H -1.70003613 0.74164220 -0.93973519
H -1.51325329 0.86169936 0.82442543
H -0.51159379 1.86873150 -0.25310023
H 1.68865361 -1.15720586 0.98394168
H 0.37755473 -0.35826844 2.02134775
