11

C 0.9010411 -0.860296 0.75490236
C -1.251977 -1.452822 -1.9881178
C -0.16553396 -0.20152889 -0.0025846271
O -0.42343563 -0.7403297 1.2674456
C -0.2708473 1.294233 -0.14637427
N -0.7470207 -0.9191737 -1.0709416
H -1.3202423 1.595752 -0.18383121
H 0.20651409 1.7796385 0.7087857
H 1.651799 -0.24830045 1.2516619
H 0.22037381 1.6219952 -1.0670109
H 1.199329 -1.8691683 0.47606474
