11

C -0.8794463 -0.7994682 -1.191427
C -0.12760684 -0.06255601 -0.14049052
C -0.2638572 1.1332787 0.47156963
N 0.76028377 1.3017719 1.398424
C 1.4477888 0.21967506 1.2986891
O 0.98288924 -0.66355866 0.3908774
H -1.2586882 -1.7532734 -0.8130955
H -1.7311602 -0.19685102 -1.5201248
H -0.24806589 -1.0055176 -2.0597706
H -1.0195615 1.8914238 0.32123104
H 2.3374245 -0.064924486 1.844117
