11

C -1.13718342 0.52717414 -1.34574747
C -0.20898340 0.09169018 -0.26993288
C 1.31611368 -0.58849192 1.09233273
N 0.95376891 -0.38100446 -0.31085649
C 0.15444202 -0.15767717 1.95496553
O -0.72675310 0.24270831 1.06158775
H 1.55873359 -1.64152749 1.28444521
H -2.07560641 -0.03073504 -1.28049349
H -0.67421183 0.35921795 -2.31757925
H -1.37189576 1.58894990 -1.22740142
H 2.21157590 -0.01030433 1.35867953
