15

N -0.84660483 0.83368852 1.65311793
C 0.47611760 -1.28828787 -0.64308503
O -0.74425575 -0.92526375 0.00131870
N 0.51548442 1.00322649 -0.21841813
C 1.42378828 -0.14248101 -0.29749384
C -0.74261417 0.48417796 0.27247736
O -1.86843847 1.03029005 -0.32993944
H -1.72209983 0.49090401 2.02590427
H 0.79461618 -2.26255072 -0.26329648
H 0.32362063 -1.36423986 -1.73038889
H 2.21678939 0.02779902 -1.03090944
H 1.88871315 -0.30935627 0.68144248
H -2.00050922 0.56074371 -1.16403417
H 0.35856953 1.43251591 -1.12524641
H -0.07317731 0.42883407 2.16855107
