15

N -1.2251459 -0.19279052 1.896513
C -0.18148422 -0.2949589 1.0431553
O 1.0267427 -0.11201536 1.5501761
N -0.3520962 -1.0467725 -0.083465904
C 0.43310878 0.88826436 -1.2914069
C 0.5408892 -0.66313016 -1.1687423
O 0.36683148 1.4144855 -0.021219136
H -1.313375 -1.1501591 -0.36829185
H -0.4744021 1.1267922 -1.8784641
H -1.0182791 0.35737517 2.7155569
H 1.5566897 -0.9565528 -0.88704455
H -2.1546757 -0.109713554 1.5237806
H 0.2593608 -1.200603 -2.079209
H 1.2960701 1.2426206 -1.878163
H 1.2397655 0.69715834 0.92682475
