9

O -1.53187349 0.46131840 -0.65365083
C -0.97054503 -0.72904221 -0.19627913
N -0.15974737 0.06158953 -1.09250562
O 1.67732473 1.15982040 0.14051537
C -0.02173229 -0.47405719 0.94920551
C 0.63967602 0.33460929 0.10997778
H -1.41769557 -1.66312811 -0.52429989
H 0.00642914 -0.71811398 1.99941808
H 1.77816378 1.56700378 -0.73238163
