9

O -1.5076284 0.7095709 -0.45855886
C -1.0981812 -0.19720533 0.5168112
N -0.60556626 -0.42611465 -0.8213384
O 1.7868936 0.16782573 -0.97836185
C 0.28860763 0.13195279 1.0126637
C 0.6811101 0.012434959 -0.26301765
H 0.71880037 0.461683 1.9451418
H 1.5848219 -0.011415231 -1.9083918
H -1.848858 -0.8487321 0.9550519
