11

N -0.4624094 2.0524056 0.37012398
C 0.0663359 -0.3661852 -0.071322046
C -0.7635521 -0.0763931 0.9591314
N 0.61752856 -1.537214 -0.7022175
N -1.1108204 1.2659128 1.0999626
C 0.6820487 0.15990089 -1.1459829
H 0.012526239 -2.1006641 -1.283744
H -1.2278692 -0.7938865 1.6186
H 1.7257988 0.45638523 -1.1978072
H -0.86656153 2.9788344 0.5422009
H 1.3269744 -2.039096 -0.18894517
