11

N -0.87376845 0.989683 -1.3438976
C -0.28118986 0.24055031 -0.3102921
C 1.0149277 0.30286282 0.15667658
N 1.07791 -0.55971426 1.2084742
N -0.077177145 -1.1763239 1.4530412
C -0.91159415 -0.69820684 0.54178834
H -1.558573 0.45591345 -1.8625495
H -0.19129802 1.3623701 -1.9879928
H 1.8700308 0.8796307 -0.16565628
H 1.8713441 -0.76088536 1.7915765
H -1.9406118 -1.0358801 0.5188318
