10

C -0.99143822 0.38831440 -1.31103648
O -0.54474540 -0.40000370 -0.19578487
C 0.51804965 0.08557633 0.42966753
O 1.11306072 1.09519357 0.14431345
C 0.96705810 -0.76633691 1.61432129
O 0.41312161 -1.77769797 1.94994195
H -1.26113302 1.39535213 -0.98176297
H -1.86146137 -0.13669191 -1.70259242
H -0.20489169 0.45654380 -2.06714376
H 1.85237977 -0.34024988 2.12007628
