10

C 0.22957665 1.7128454 0.019883202
O 0.5663514 0.3149294 0.08211893
C -0.48696724 -0.4983285 0.12551132
O -1.6456962 -0.16768873 0.11003774
C -0.079082884 -1.958065 0.23259388
O 0.7288422 -2.4057407 -0.6737814
H 1.1801488 2.244206 -0.0009079763
H -0.34926784 1.9174124 -0.88364464
H 0.21083225 -3.1572955 0.0906867
H -0.35473707 1.9977252 0.8975022
