10

O 1.0684217 0.29350373 1.6757568
C 0.7315495 -0.10709987 0.42803043
N 1.2233005 -1.1043264 -0.1715438
C -1.5781882 0.22303912 -0.3758292
C -0.815871 0.16747767 -1.391112
N -0.18637905 0.78319013 -0.18943995
H 0.63511616 1.1490334 1.8241502
H -2.4818034 0.15017198 0.20061186
H 1.933811 -1.5452447 0.4095482
H -0.5299575 -0.009745147 -2.4101725
