10

O 1.54614144 1.85449302 -1.40293104
C 1.04234030 -0.27142139 -0.22536676
C -0.36660316 -0.67551808 0.14487803
C 1.28984441 0.85792476 -0.85958757
N -1.19547637 0.51118848 0.34529983
H -0.31377057 -1.33656310 1.02502393
H -0.82545630 -1.26510651 -0.66002771
H 1.89100611 -0.92016717 -0.02747680
H -2.16494205 0.24028994 0.47990938
H -0.90308385 1.00487986 1.18027872
