10

O -2.4238815 0.54482585 -1.2750986
C -0.21082199 -0.5282234 -0.94205475
C -1.390201 0.040853653 -1.0974044
C 0.54969054 -0.4239174 0.36034226
N 0.20367111 0.8179901 1.0483891
H 1.6243669 -0.52685994 0.13920392
H 0.5695737 1.6135638 0.5388873
H 0.2887673 -1.2545042 1.029729
H 0.62450194 0.8331502 1.9725325
H 0.16433318 -1.1168787 -1.7745262
