11

O -1.5721799 0.0604863 1.8003975
C -0.699285 0.016277332 0.782545
N 0.39855093 0.71004635 0.6636485
C 0.92174196 0.29816306 -0.5390454
O 2.0813582 0.81533337 -0.99361897
C 0.1409499 -0.6409619 -1.1434544
N -0.9254414 -0.8111459 -0.25063926
H -1.221729 0.70886916 2.426336
H 2.3694375 1.4550817 -0.3277035
H 0.22157367 -1.1863425 -2.0683963
H -1.7149767 -1.4258069 -0.35006955
