11

O -1.34758862 -1.32715679 -1.05916467
C -0.87102143 -0.12424212 0.88682751
N -0.18574629 0.72961283 1.52917113
C 1.60307381 0.66658202 -0.59530036
O 2.67744178 0.29745032 -0.19666572
C -0.43362934 -0.52478749 -0.48247488
N 0.61632003 -0.19188021 -1.09458266
H -0.60369837 0.91737644 2.44305337
H 1.34103285 1.73314847 -0.72802431
H -1.00626606 -1.56899756 -1.93514772
H -1.78991819 -0.60710582 1.23230792
