12

C 0.60430783 0.08913777 0.52797989
C -0.56799450 1.00117315 0.76423826
N 1.31918247 -0.51637181 1.37155069
N -0.74539871 -1.36428916 -1.58733132
C 0.26726346 -0.63119389 -1.72461645
O 1.00719669 0.02746015 -0.79646678
H -0.74001128 1.13015581 1.83428921
H 0.70007276 -0.46093836 -2.70898962
H 0.98824756 -0.34112085 2.31669169
H -0.36002116 1.97525162 0.31166901
H -1.47821017 0.60497050 0.29991631
H -0.99463497 -1.51423503 -0.60893096
