9

O -0.053094827 0.20669371 1.3387516
C -0.111952245 1.3058113 0.59862864
C 0.06204539 -0.1529874 -0.8506685
O -0.26181194 -0.9154151 -1.8280236
C 0.1423927 -0.85584813 0.39124173
N -0.01799528 1.2027818 -0.7003285
H 1.0228311 -1.444575 0.6435279
H -0.51374906 -1.5823685 -0.72860056
H -0.26866585 2.2359076 1.1354712
