9

O -1.0757805 0.5435839 -0.3296488
C 0.93488276 -0.4716564 0.23112537
C 0.064747415 -0.05480247 -0.95458937
O 2.0020795 -1.0177512 0.1832963
C -0.8394705 0.45174563 0.98808944
N 0.2395027 -0.08926563 1.4101657
H 0.55682427 0.6819863 -1.591571
H -1.624411 0.86552346 1.6164927
H -0.25837442 -0.9093635 -1.5533602
