10

O -1.686696 -0.59269947 -1.528515
C -0.8049253 -0.26693252 -0.7786335
C -0.37619084 -0.6194835 0.65968966
C 0.7700939 0.39860862 0.44475567
N 0.24396099 0.611147 -0.89968675
H -1.1107725 -0.35029015 1.4209677
H -0.06558514 -1.6580967 0.78994024
H 0.72509646 1.2858523 1.0822701
H 1.7782815 -0.024914466 0.46579352
H 0.52673686 1.2168086 -1.6565821
