10

O 0.04431105 0.54960304 -1.909549
C -0.8018966 0.17980969 -1.1301453
C -0.45001072 -0.39991024 0.19996482
C 0.5616166 0.35715303 0.99756324
N 0.9146005 -0.89088345 0.35911775
H 0.92646605 1.2850184 0.56329286
H 0.50285834 0.32833824 2.0835392
H -1.8816996 0.25194925 -1.3648328
H 1.4106 -0.6957461 -0.5086159
H -1.2268456 -0.96533173 0.7096656
