11

C -0.43741563 -1.380083 -0.5679082
C -0.5156243 0.015930504 0.03708831
C 0.84050924 0.6443022 0.22548705
O 1.8954772 0.14150555 -0.05596199
C 0.81320107 2.0097451 0.81763643
N 0.78016543 3.0673041 1.2761974
H 0.050572272 -1.3594232 -1.5466467
H -1.4437909 -1.788325 -0.69102407
H 0.1351018 -2.0558128 0.07380909
H -1.0094259 0.007527297 1.0171921
H -1.1087701 0.69732934 -0.5858693
