11

C 0.46503606 0.82735133 0.27818507
C -0.14482999 -1.2853136 -0.9495312
C 0.081752226 1.6280906 1.4785888
O 1.6776907 0.356851 0.24438217
C -0.51403743 -0.23298669 -0.009126606
N -0.20049228 2.247968 2.410431
H 0.6925958 -0.96118337 -1.573967
H 0.25165 -2.111812 -0.33856016
H -1.008684 -1.6699637 -1.4986445
H 0.14746909 1.5203035 -0.5933099
H -1.4481505 -0.3193051 0.5515522
