11

C 0.92338157 -0.70499874 0.41746540
C -0.34785359 -0.65584029 -0.32639042
C 1.48091123 0.49577546 1.02117202
O 0.89944531 -0.75062812 -1.00027196
C -1.13957403 0.60913268 -0.51308063
N 1.91366841 1.44170999 1.52395100
H -0.49844507 1.49085408 -0.42994068
H -0.91955722 -1.58550500 -0.34189322
H 1.22694395 -1.62855045 0.90793315
H -1.92932331 0.67362337 0.24230261
H -1.60959707 0.61442712 -1.50124714
