11

C 1.7865015 -0.52089125 -0.13699718
C -0.74867904 1.1528916 -0.20795214
C 0.51275796 -1.0875622 0.2796815
O -0.46193844 -1.2729278 -0.73434055
C -0.71942973 -0.27977198 0.24861182
N 2.8040876 -0.06688923 -0.44237942
H 0.08661976 1.3693565 -0.87937605
H -1.48987 -0.57002217 0.9652278
H 0.6045582 -1.9056948 0.9923443
H -0.69179714 1.824024 0.6550731
H -1.6828107 1.3574877 -0.73989314
