10

N -1.321362 -0.6392444 -1.1603558
C -1.2076975 -0.7466113 0.089983314
O -0.18050079 -0.21532187 0.7753048
C 0.76749355 0.47571462 -0.032252926
C 1.8202022 0.9790699 0.8527685
N 2.6737344 1.3980094 1.5110986
H -2.1638334 -1.1087449 -1.4869032
H -1.8757676 -1.2551892 0.7904264
H 0.28956914 1.3076138 -0.55878264
H 1.1981621 -0.19529589 -0.78128684
