10

N -1.467541 2.1906068 0.8346584
C -0.767047 1.551937 0.17047961
O -0.8413706 -0.97096646 -0.7000161
C -0.077073544 -1.4422709 0.18493707
C 0.12526031 0.81068593 -0.68692416
N 0.85569185 -0.65749854 0.6112683
H 1.1491147 1.1612985 -0.6219334
H -0.22369923 0.7520901 -1.7127049
H 1.4725045 -0.934332 1.3649323
H -0.22584003 -2.4615502 0.55530286
