10

N -0.24175488 -0.28346606 -0.62952210
C -0.54824679 0.31090494 0.65436372
O 1.24224635 -1.81537235 0.18037691
C -0.04366737 1.68935044 0.75777257
C 0.68798490 -1.27664988 -0.74965561
N 0.33522173 2.77893739 0.81004752
H -0.59353295 0.15137819 -1.46959080
H -1.62715874 0.31417598 0.83497437
H -0.07195592 -0.31140969 1.41633262
H 0.86086378 -1.55784879 -1.80509897
