11

O -0.28018707 1.6395159 2.1650913
C -0.2129126 0.8652033 1.2338009
C 0.7532255 1.0193423 0.13778543
C 0.78051704 0.1363768 -0.87121594
N -0.10428917 -0.9196588 -0.8769459
C -0.993491 -1.0448335 0.15224366
N -1.0835195 -0.2487072 1.1512575
H 1.4333749 1.8625406 0.16710097
H 1.4641578 0.18765564 -1.711905
H -0.09905352 -1.5940952 -1.6235546
H -1.6578225 -1.9033395 0.076341525
