11

O -0.90209581 3.10784890 0.14938256
C 0.63319613 -0.45372935 0.92361854
C 0.59719198 -0.06288900 -0.54197328
C -0.40024893 2.15272771 -0.30082011
N 0.13752446 1.24800227 -0.90046246
C -0.31295064 -1.36655472 0.66153458
N -0.41248125 -1.14515264 -0.73209807
H 1.29045824 -0.22549421 1.75187138
H 1.50247674 -0.26665888 -1.12103937
H -1.30990446 -0.83440077 -1.09854644
H -0.82316658 -2.15369896 1.20853252
