11

C -0.34034008 2.3360555 -1.1336942
N 0.4779776 -0.76865524 -0.037705623
C 0.30697882 -0.23724163 1.3102528
C -0.46372065 -0.27161476 -0.9924944
N -0.43684047 1.1689699 -1.1278712
H 1.421782 -0.60922754 -0.36979234
H 1.0526677 -0.69422084 1.9655299
H -1.4761169 -0.55871904 -0.6884585
H -0.26096568 -0.7061945 -1.9737524
H 0.4040074 0.85613316 1.3651898
H -0.68542993 -0.51528496 1.6827964
