11

C -0.06367027 0.6795081 -0.77529097
C -0.69262147 -0.8962908 1.2978964
C 0.70563614 1.3797588 0.8337707
C 0.067335255 0.281633 0.82041585
O -1.1684909 0.90977234 -1.1923937
N 0.99967533 0.327627 -1.5557593
H 1.9239724 0.4093593 -1.1626163
H -0.5270255 -1.0155492 2.3726013
H -0.37256873 -1.8109516 0.7902461
H -1.7610403 -0.74182975 1.1193585
H 0.88879806 0.4769628 -2.5482283
