11

N -0.30340081 -0.94764422 -0.50833006
C 0.79629027 -1.04903538 0.38968167
C 1.07807031 0.19780379 1.12810425
N 0.27078925 1.25147763 1.19355960
C -0.47399626 1.38027354 0.09484799
C -0.78272900 0.30228589 -0.74864789
O 1.74939793 -0.10758751 -0.05867112
H 1.03589812 -2.03555143 0.78048315
H -1.48929186 0.39304631 -1.56707116
H -0.94379354 2.34292248 -0.10716946
H -0.93723431 -1.72799120 -0.59678712
