11

N 1.2862473 -1.2503232 0.5489574
C 0.40740317 0.5851023 -0.62085575
C 0.11309817 -1.359141 1.0638577
C -1.056223 -0.52739066 0.8151798
C -0.93217194 0.49143058 -0.05522745
N 0.3597535 1.6029191 -1.4310781
O 1.4474385 -0.17898059 -0.38069817
H 0.060438577 -2.1938505 1.7597883
H -1.9714512 -0.7666194 1.349116
H 1.1384182 1.9264252 -1.9969816
H -0.8529513 1.670428 -1.052058
