11

N 1.9219129 -0.78618497 -0.60320807
C -1.0060875 1.1398839 -0.23455557
C 0.71526545 -0.33833262 -0.26160738
C 0.18802483 0.855187 -0.86533976
C -1.5532563 0.3322466 0.8155392
N -1.0496337 -0.7693091 1.2679464
O 0.14420728 -1.1347783 0.63863456
H -2.4825811 0.59221935 1.315113
H -1.5818415 2.019569 -0.5166083
H 2.3089044 -1.6377833 -0.22376667
H 2.395085 -0.27271774 -1.3321475
