11

O -1.112005 1.4276109 1.0059999
C 0.5761706 -0.40105557 0.81096065
C -0.35086298 0.4741893 0.4226692
C 1.0165198 -1.1676149 -0.37039742
C 0.421554 -0.84973186 -1.5496867
N -0.54480875 0.31321204 -1.010485
H -1.4987648 0.04931361 -1.2555223
H -0.3195685 1.1563519 -1.5389699
H -0.8963918 1.4571304 1.9480346
H 0.93572676 -0.5179928 1.8279731
H 1.7724308 -1.9414129 -0.29057622
