11

O 0.85124388 1.84915683 0.37771260
C 0.61540625 -0.62443955 0.61792046
C -0.34380291 -1.55420594 -0.00864140
C -1.25548289 -1.00095510 -0.85037191
C 0.35041844 0.60790576 0.18511381
N -0.77735654 0.52683626 -0.73086159
H -0.31547130 -2.61833201 0.19961140
H -1.58208104 1.07039482 -0.41992691
H -0.54671398 0.84121138 -1.67366940
H 1.59732733 1.78637732 0.98943807
H 1.40651260 -0.88394942 1.31367518
