11

O 0.18932009 -1.9085158 1.1294088
C 0.028703092 -0.76577246 0.41432893
C -0.8765073 -0.368545 -0.5370786
C -0.50297964 0.9649895 -0.9084261
C 0.5962704 1.3145335 -0.17745721
N 0.9173239 0.2411317 0.63577753
H -0.508103 -2.5184894 0.86729014
H -1.7010888 -0.9503224 -0.9225057
H -1.0052266 1.5826653 -1.6383016
H 1.1828572 2.2194996 -0.15433289
H 1.6794305 0.18882579 1.291297
