10

C -0.16245699 -0.48195627 0.0454424
C 1.2375172 0.16084717 -0.00854433
O -0.40678018 -1.4515613 0.868358
C -1.3127527 0.4073482 0.06291344
H -0.42903733 -0.7834336 -1.0433756
H 1.9727519 -0.62800616 -0.18514778
H -1.6958716 0.8920758 -0.82927394
H 1.316832 0.9166623 -0.79654866
H 1.4513354 0.62808865 0.9556059
H -1.9715376 0.3399352 0.9305703
