10

C -0.71405784 0.64824232 -0.97368580
C 0.33110383 -0.18636213 -0.38216716
O 0.58852547 1.16359715 -0.74017928
C 0.35761402 -0.51158722 1.08903140
H -0.98869396 0.52218038 -2.02009663
H -0.12424436 -1.47658433 1.27902117
H -1.49414098 1.05753568 -0.33176512
H 1.38766458 -0.56888201 1.45507208
H 0.82209784 -0.90973355 -1.03518547
H -0.16586861 0.26159370 1.65995492
