10

C 0.43645057 -1.1186614 0.36565867
C -0.7658209 1.1277382 -0.14101633
O 0.5911995 1.3624774 0.20572901
C 0.2703702 0.14124152 -0.4442557
H 0.042852182 -0.9765312 1.376933
H -1.4342096 0.95427614 0.70235807
H 0.6264729 0.091355115 -1.4745355
H -1.1653955 1.7625463 -0.93073213
H -0.09533019 -1.9522976 -0.105258465
H 1.4934111 -1.3921446 0.4451194
