9

O 1.2784885 -2.5131586 -0.66499317
C 1.1509085 -1.4091583 -0.3086409
N 1.2104571 -0.26296946 0.093998075
C -1.1802415 0.33301285 -0.0567053
C 0.2334301 0.75632375 0.28910035
O -1.4599568 -0.7629994 -0.46012932
H 0.23821454 1.09827 1.3325961
H 0.4767349 1.6423513 -0.31549415
H -1.9480357 1.1183277 0.090268336
