9

O 1.7408835 0.54067624 -1.6434102
C 0.8877868 0.35461962 -0.8197798
N 0.26754776 -0.81415373 -0.44066367
C -0.66938007 -0.55671823 0.5569924
C -0.6158847 0.75896895 0.7830655
O 0.32192805 1.3370519 -0.039821494
H 0.48995817 -1.701507 -0.8564116
H -1.2754316 -1.3296906 1.0028176
H -1.1474078 1.4107527 1.457211
