10

O -0.01080572 0.91468644 1.6299646
C 0.112964645 -0.050718177 0.7453343
N 1.340968 -0.19506268 0.029129395
C -0.7785212 -0.15869758 -0.7695111
C 0.5994788 0.061483752 -1.0511609
N -0.90368617 -0.93072563 0.51359206
H 0.8321444 1.3967031 1.6157953
H 1.0164021 0.46478227 -1.9743637
H -0.55812633 -1.8794852 0.3807367
H -1.6508186 0.37703374 -1.1195168
