10

O 0.062314562 -1.4476651 1.6659906
C 0.038522616 -0.47687772 0.73930275
N 0.1361786 0.8002429 0.95119894
C 0.056043338 1.3638239 -0.31140506
C -0.089802854 0.40503845 -1.2661959
N -0.100647464 -0.8006185 -0.5680495
H 0.16318405 -0.99323976 2.51493
H 0.10845586 2.4349937 -0.44721296
H -0.18494804 0.44479555 -2.33968
H -0.18930063 -1.7304934 -0.93887866
