10

O 0.02150073 -0.8250844 1.7133108
C 0.6211805 0.319978 -0.56220484
N -1.3997719 0.41148937 0.07268602
C -0.1909406 -0.38030297 0.4572815
C -0.6836759 1.029677 -0.80565995
N 0.23579152 -1.1338767 -0.6874024
H 1.0445956 -1.6881807 -0.39424485
H -0.27155358 -0.13866568 2.3291109
H -1.0301622 1.7622381 -1.5271429
H 1.6530359 0.6427278 -0.59573424
