10

N -1.0902818 0.8681442 -1.3587976
C 0.26763055 0.014834502 0.16632923
N 1.247086 -0.08286783 1.128618
N -1.5277206 -0.33839524 -1.0984718
N 0.07545302 1.1360319 -0.539608
C -0.69534343 -0.91868204 -0.23421657
H -1.0342116 1.7031472 -0.46349064
H 1.995377 0.58481514 1.0193547
H -0.8170114 -1.9497256 0.06945643
H 1.5790222 -1.0173024 1.3108263
