9

N -0.77421874 0.24494505 -0.87511724
C 0.57338053 0.30992866 -0.76167107
C 0.8697244 -0.111506425 0.5147492
C -0.38771045 -0.40875378 1.0868353
N -1.3801286 -0.19010706 0.23754872
H -1.3379433 0.4802374 -1.6757523
H 1.1981951 0.64193577 -1.5774894
H 1.8457692 -0.19338995 0.9692234
H -0.6070679 -0.7732896 2.0816731
