9

N 1.18401806 0.00454121 0.24987355
C 0.40018375 0.32806026 -0.85021294
C 0.48052301 -0.42934204 1.33732630
C -0.87348274 0.09537428 -0.46724863
N -0.79049024 -0.35601126 0.84392195
H -1.80664475 0.20691388 -0.99876982
H 0.80641219 0.68525011 -1.78460275
H 2.18847091 0.07702640 0.26706225
H -1.58898993 -0.61181277 1.40264979
