10

N -0.110757925 0.12303118 0.50349694
C -1.040639 0.9667722 0.88470405
O -0.38237694 0.36467934 -1.777007
N 1.2138523 -1.0428032 -0.95980185
C 0.19356255 -0.15325359 -0.8418921
O -1.050349 0.99217427 2.1545753
H -1.6974815 1.5523949 0.24384093
H -0.09672718 0.1320746 1.8387116
H 1.4194094 -1.3802365 -1.8850032
H 1.5515076 -1.554833 -0.16162455
