10

N 0.37097418 1.7494874 -0.8382982
C 0.41475108 0.8198346 0.15449417
O -0.90499187 -2.4362853 0.40598103
N -0.27967557 -0.3536365 -0.24821803
C -0.29349464 -1.2773755 0.6236765
O 0.96285874 0.98701555 1.2245356
H -1.285917 -2.3916545 -0.48471305
H 0.8801036 2.60628 -0.7166058
H -0.042059675 1.5113943 -1.7244434
H 0.17745131 -1.2150596 1.6035914
