10

O -1.2351238 -1.341779 1.7002159
C 1.1619555 0.82289976 0.521863
C -0.55216676 -0.6498086 0.98714525
N -0.81047714 -0.57258254 -0.39897218
N 0.52468663 0.12518956 1.4091759
C -0.07318831 0.19583085 -1.2314622
N 0.9271856 0.9150368 -0.83189595
H -0.35149238 0.1935817 -2.2823672
H 2.0018513 1.426371 0.86669326
H -1.593231 -1.1147398 -0.7403958
