11

O 1.2569778 -0.6540753 -2.1068208
C 0.62374675 -0.3469612 -1.1176527
N 1.1405128 0.030332232 0.09883777
C 0.12955727 0.3368067 1.0838742
C -1.1401922 0.09412062 0.3062106
C -0.862412 -0.29099685 -0.9384411
H 2.131618 0.08365436 0.25968525
H 0.19315529 1.374131 1.4377115
H 0.19487529 -0.3174548 1.9623002
H -2.118954 0.22883594 0.7511255
H -1.5488852 -0.53839254 -1.7368308
