11

O -0.2625556 0.7088397 1.4028562
C 0.33022934 1.0713415 0.15939581
N 0.6172766 -1.3996216 0.28802028
C -0.46600255 -0.82421297 -0.47398138
C 0.89626604 -0.23321985 -0.5142811
C -0.99873596 0.49064144 0.20019326
H -0.9976444 -1.4214864 -1.2038589
H -1.9812843 0.93890154 0.117969505
H 0.54332083 -1.156789 1.2741915
H 0.66200393 2.0946293 0.033036113
H 1.6571263 -0.26902387 -1.2835416
