11

O -0.41474030 -0.28541513 1.51192705
C 0.93567884 0.22422594 -0.44316716
N 0.83818662 -1.21444537 -0.49547172
C 0.13953087 0.80580768 0.78322166
C -1.07227287 0.15335195 0.32402784
C -0.30717581 -0.44027703 -0.91265707
H 1.71098496 0.73929497 -0.99593863
H 0.29603515 1.74057606 1.30750551
H 0.69894355 -1.60622657 0.43409251
H -2.11419450 0.44005421 0.39683053
H -0.71097671 -0.55694654 -1.91037089
