14

C 0.15371995 -0.36311698 0.25699237
N -0.5869337 0.59694177 0.94413114
C -0.7226371 1.8730029 0.24799016
O 1.5112772 -0.060148895 -0.16502139
N -0.15364969 -1.0616182 -1.0429624
C 1.1741593 -1.4131545 -0.5061174
N 0.6121952 -1.6292988 0.8582775
H 1.9113187 -2.0441737 -1.0071377
H 0.26890054 2.2852914 0.044986807
H -0.0374301 -0.41829 -1.8284
H -1.4762998 0.20652622 1.2283525
H -0.128951 -2.3305354 0.7811515
H -1.2684181 1.7899112 -0.7045443
H -1.2572513 2.5686631 0.8923013
