13

C 0.19952743 -1.5197293 -0.5981884
C -0.2062479 -0.056260493 -0.58451855
O -1.5727257 0.13586314 -0.22589563
C 0.73707443 0.77028847 0.2997454
O 1.9445058 0.6214161 0.25912732
N 0.09741092 1.6546996 1.1077653
H 1.2479639 -1.614015 -0.88697255
H -0.42700905 -2.0758007 -1.3026339
H 0.08317143 -1.9658298 0.39889666
H -0.11505031 0.3593565 -1.5938911
H -1.7533957 -0.43922716 0.52975124
H -0.88869655 1.8095715 0.9743911
H 0.6534711 2.319667 1.622423
