13

C 0.35827467 0.7760379 0.45287478
C 0.30351245 -0.72568107 0.07103689
O -0.9644193 -1.2679753 0.37615174
C 0.50104547 -0.2140278 -1.3607996
O 0.4994785 1.1513962 -0.93086773
N -0.7831787 1.3730122 1.0400234
H -0.33203903 -0.43878543 -2.0389545
H 1.2519614 1.0604926 1.0213631
H -1.622691 0.87425447 0.76693135
H -0.725486 1.3691015 2.0538337
H 1.1192797 -1.345481 0.4631944
H 1.4491358 -0.49945158 -1.8345696
H -1.054874 -2.1128924 -0.080218375
