13

C 0.107991464 0.45959896 -0.7326921
C 0.16474937 0.72725534 0.75966096
O 1.3872362 0.021963986 -1.1476833
C -0.9897403 -0.61453223 -0.5895127
O -1.0707016 -0.77481323 0.80473053
N 1.0187438 0.0060172984 1.463895
H -0.7272654 -1.5494487 -1.1066153
H 1.2811971 -0.40221325 -2.003097
H 0.24519987 -0.8991101 1.2534229
H -0.3327975 1.608892 1.1545324
H -0.22002655 1.3469312 -1.2899449
H -1.9439421 -0.24948452 -0.9939379
H 1.0793557 0.31894332 2.4272418
