10

C -0.29130092 -0.8649903 0.3185979
C 0.97431666 0.71202016 0.96144056
N 0.47859097 -0.4487447 1.3658599
C -0.05572542 -0.52834827 -1.1390744
N 0.51899606 1.2237612 -0.1767658
C -0.692821 0.5248665 -0.5519722
H -0.17791887 -1.095491 -2.0514219
H -1.6500285 1.0335363 -0.6898043
H -0.8987461 -1.7539778 0.47969043
H 1.7946371 1.1973674 1.48345
