10

C -0.91763817 0.52094619 -0.35515395
C -0.32159267 -0.76212954 -0.78723811
N 1.13998545 -0.75792171 -0.71274884
C 1.35153679 0.03037482 0.26319714
N -0.92570410 -0.60838303 0.56197432
C 0.03609780 0.51520699 0.79042279
H -1.78273563 1.11679479 -0.61369369
H -0.80834479 -1.45166420 -1.46845163
H 2.33752110 0.28816582 0.63686716
H -0.10912526 1.10860967 1.68482504
