10

C -1.0821856 0.24511054 -0.25143576
C -0.3187144 -0.59785455 -1.0497917
N 0.9495396 -0.8913093 -0.76365983
C 1.4435734 -0.32740465 0.33632684
N 0.81134087 0.4931141 1.1748018
C -0.4543735 0.7732147 0.8695276
H -2.1129572 0.47879076 -0.49345875
H -0.73240453 -1.0536714 -1.9466598
H 2.4781873 -0.5631358 0.57774353
H -0.9820054 1.4431454 1.5466063
