10

O 0.21627416 2.2105708 0.39483166
C 0.118082166 0.8823232 0.16284186
C -1.0033053 0.19539495 -0.21380879
N -0.57074594 -1.1176978 -0.31224817
C 0.7429433 -1.1396495 0.0010043567
N 1.1941262 0.05888896 0.2948814
H 1.1318101 2.3722997 0.65370035
H -2.019347 0.49380115 -0.41246316
H -1.1375144 -1.9080338 -0.5703055
H 1.327677 -2.0478976 0.0015661361
