10

O 1.7377895 1.1572094 -0.69154286
C 0.66095865 -0.9360452 -0.090029106
C 0.6243725 0.50526404 -0.26104775
N -0.44757313 -1.4501113 0.3216808
C -0.5858605 1.0301449 0.052696228
N -1.2836356 -0.24230695 0.4318685
H 1.506988 2.0956645 -0.7255384
H -2.1069643 -0.39065576 -0.15394789
H 1.5176368 -1.574763 -0.2782874
H -1.623712 -0.19440089 1.3941478
