14

C -1.6262016 0.6038095 1.328782
N -0.5451959 -0.23270017 1.129698
C 1.5509356 -0.06253264 -2.051667
O 0.012962814 0.6300334 -0.919939
N 1.2817205 -0.97172713 -0.19992279
C 0.25981465 -0.19831444 0.0049058846
N -2.3100255 0.5168035 2.395551
H -3.06424 1.1981915 2.3825629
H -1.7855581 1.287583 0.49171114
H -0.35174078 -0.8942197 1.8673404
H 1.5592977 -1.6854832 0.46384504
H 1.4228108 0.94294375 -2.4372013
H 2.5878627 -0.31235415 -1.8564898
H 1.0075566 -0.82203346 -2.599177
