14

C -2.3925972 -0.0773984 0.9725515
N -1.3526232 0.13786949 -0.015604613
C -0.03446455 0.03738869 0.34383106
O 0.3505692 -0.07549927 1.4921405
N 0.8420203 0.1048731 -0.7366025
C 2.2136023 0.0049860924 -0.59177315
N 2.9658723 0.11131189 -1.6126115
H -2.0380287 0.29266298 1.9349158
H -2.6502974 -1.1390166 1.0801975
H -3.2865777 0.47883135 0.6808984
H -1.590331 -0.021919997 -0.98239475
H 0.5176496 0.30479604 -1.6731442
H 2.5178368 -0.16571163 0.4416145
H 3.9373693 0.0068263034 -1.3340188
