11

N -0.7355145 0.064646974 -1.5112267
C 0.5832584 0.64695334 1.3041556
O 1.4622396 -0.5497418 -1.2893885
C 0.36204273 -0.33454537 -0.84579885
C -0.010326597 -0.5240083 0.72858244
O -1.2879862 -0.31114915 0.96621853
H 0.25785458 1.6142145 0.91026694
H 0.479135 -1.4592112 1.05234
H 1.2157964 0.6518787 2.1896498
H -1.6041176 0.06938251 -0.98788244
H -0.72238183 0.1315797 -2.5169168
