10

O -0.083739646 0.75625545 1.8551733
C -1.141443 -0.4737914 -0.09244148
N 0.71586776 0.04483229 -1.4390854
C -0.039461616 0.092609525 0.66475135
C -0.49175906 -0.5241774 -1.3715501
N 0.9758302 0.5012862 -0.23546495
H 1.8879741 0.87534434 -0.02173161
H 0.08521034 -1.0617298 0.78416216
H -0.9011508 -0.9420361 -2.283874
H -1.0073284 0.731407 2.1400611
