10

O 1.91064675 0.01137258 0.44538521
C -1.48532708 -0.17464987 0.39449405
N -1.24441004 0.76915161 -0.55534073
C -0.36368479 -0.87479170 0.85006169
C 0.67607085 -0.34406847 -0.07522453
N 0.01486071 0.78229401 -0.78825629
H -2.50742162 -0.26119898 0.74460661
H 1.83845048 -0.11293401 1.40098591
H 0.78039701 -1.11983334 -0.85686205
H 0.38041774 1.32465804 -1.55984978
