10

N -1.61554590 -2.34021915 -1.79186536
C -1.07249889 -1.47944853 -1.24924557
O -0.00616803 -0.80620510 0.71909662
C -0.38618058 -0.36389831 -0.58905922
C 0.64683524 -0.01719281 1.58404072
N 0.91694317 1.20236576 1.10884497
H -1.07493441 0.48563078 -0.53463814
H 1.40870649 1.81783488 1.73874514
H 0.69095078 1.59244079 0.19940112
H 0.49189232 -0.09130806 -1.18531995
