10

N -2.7899597 -0.9077746 1.7097157
C -1.9235355 -0.48866165 1.0718871
O 0.3001132 -0.7877114 0.39648268
C 1.4738761 -0.38967967 -0.08384769
C -0.8434282 0.06918552 0.24866939
N 1.4203717 0.73808 -0.8108345
H -1.1547388 0.10679544 -0.8002396
H 2.3879812 1.0136002 -0.9941511
H 1.7343757 -0.44128063 -1.3095992
H -0.6050559 1.0874467 0.57191724
