10

N 0.7793876 -2.1091053 -2.4983246
C 0.6486744 0.20155026 1.5705016
O 0.8060684 -0.5456264 0.46866852
C -0.0073575843 -0.37605658 -0.697908
C 0.44420925 -1.3518485 -1.6955295
N -0.3198746 1.1171018 1.4716552
H -0.4602372 1.6945847 2.2866518
H -0.93457645 1.3070056 0.6865454
H -1.0622759 -0.56787455 -0.47565502
H 0.105981834 0.6302689 -1.1166054
