9

N 1.0482136 -1.105801 0.08611691
C -0.62681985 2.6543574 -0.8561281
O -0.94353837 -1.6892563 1.0521255
C -0.2354408 -0.9021819 0.46138114
C -0.7687163 0.41507462 0.07585201
C -1.5563608 1.4031785 -0.012023061
N 0.038201526 1.6304542 -0.7241559
H 1.577158 -0.4157224 -0.41608897
H 1.467303 -1.9901031 0.3329205
