9

N -0.26089135 1.2202134 1.5193356
C -0.3696431 1.157181 0.1668314
O -0.74193686 2.0644648 -0.545197
C 0.013580638 -0.14145473 -0.4084826
C 0.30161628 -1.1609355 -0.9757785
C 0.631845 -2.3383842 -1.6305244
N 0.90585035 -3.323461 -2.1697192
H 0.041736845 0.43668616 2.0759015
H -0.522158 2.0856898 1.9676335
