10

C -0.82847714 -0.30860186 0.55118346
C 1.4486889 0.61552286 0.8104022
C 2.393627 1.3585663 0.9355728
C 0.46988344 -0.36502805 0.6550523
N -2.0573726 -0.73073834 -1.2587725
N -2.0089247 -0.49052814 0.15063423
N -0.95553356 -0.6919305 -1.814531
H -0.5491364 -0.4737547 1.7254897
H -1.1341336 -0.9370419 -2.7882824
H 3.2213788 2.0235343 1.0332508
