12

N -0.9868671 -0.62320304 1.0580345
C 0.04976389 0.5906073 -1.0125031
C 0.9139908 -0.546517 -0.49972764
C -1.2176096 0.35585597 0.056916073
N -0.014401133 1.2231984 0.3123014
C 0.40424255 -0.12722023 0.896088
N -1.650269 0.18153118 -1.1204462
H -1.3773342 -0.24875519 1.9215966
H 0.7073936 -1.5649449 -0.8384993
H 1.9589065 -0.26555446 -0.64632785
H 1.030468 -0.15556484 1.7843521
H 0.18171577 1.1805669 -1.9117849
