12

N -0.43408212 -1.6664082 2.3267925
C -0.345195 -0.77173954 1.6047173
C -0.2531176 0.3610364 0.66213256
C 1.1513561 0.48002493 -0.006600958
N 1.0057317 -0.0767257 -1.3519163
C -0.24242216 -0.24267814 -1.5360805
N -1.097492 0.14760412 -0.513698
H -0.53512836 1.2746214 1.1918237
H 1.449846 1.5302545 -0.075606756
H 1.9272909 -0.05129301 0.5500371
H -0.66572237 -0.62341416 -2.4622009
H -1.9610653 -0.36128235 -0.3893994
