10

O 0.8420809 0.22343946 -1.9628704
C -0.72552204 -0.868463 -0.34417975
C -0.81132287 -0.405408 1.0637995
C 0.23472153 0.055199455 -0.7686046
N 0.5302759 0.9535997 0.21168506
N -0.08004377 0.76032025 1.3479905
H -0.08332903 -1.2966003 1.0958157
H -1.6325567 -0.6342125 1.7399305
H 1.2016932 1.7115754 0.13804631
H 0.5240029 -0.49945056 -2.5216126
