10

O -0.24176177 -0.17532541 2.026137
C -0.10656783 -0.036649793 0.6899126
C 0.7032491 -0.6140207 -0.26084694
C 0.29423472 0.010445459 -1.4639819
N -0.67291534 0.8874242 -1.2764804
N -0.90452963 0.8440176 0.053765886
H 0.39409742 -0.8285447 2.338424
H 1.466937 -1.3639895 -0.11070059
H 0.67861784 -0.15510769 -2.4618638
H -1.6113615 1.4317505 0.4656339
