10

O -0.40224746 -2.0893147 0.52869934
C -0.99022907 0.032841377 -0.6642543
C -0.2561351 -0.79956716 0.13424437
C -0.14742897 1.2503847 -0.5733557
N 0.8774234 -0.15963104 0.63690645
N 1.0388765 1.049727 0.28363916
H 0.22847356 1.5859791 -1.5476204
H -0.69250673 2.1090739 -0.15775786
H -1.2217232 -2.3893828 0.11006794
H 1.565497 -0.5901102 1.2494309
