10

C -0.85876335 -0.42246874 -0.98213605
C 0.27568504 0.27185392 -0.37340652
O 0.45351239 -0.95715906 -1.06156010
C 0.52012136 0.25666408 1.11363507
H -1.27814308 -0.06370996 -1.92124716
H -1.54590701 -0.97696604 -0.34298133
H 0.08952313 1.14734303 1.58302323
H 0.67974707 1.13189952 -0.91002727
H 1.59378759 0.24481978 1.32902729
H 0.07043674 -0.63227663 1.56567309
