10

C -1.1611829 0.06241638 -0.5710524
C 0.34927157 0.1886791 -0.51006055
O 1.0026878 0.537706 -1.4636981
C 0.99014497 -0.15286323 0.8196506
H -1.5045811 0.16758052 -1.6024537
H -1.4895036 -0.89917046 -0.16172487
H -1.6166828 0.84886754 0.041056637
H 0.9200125 -1.2333658 0.9883514
H 2.0427158 0.13926366 0.81416553
H 0.46711764 0.3408862 1.6457657
