10

C 0.42959008 0.5951131 -1.0059811
C -0.9710987 -0.40849125 0.8780127
O 0.82842606 -1.5136641 0.19038935
C 0.33143967 -0.32303149 0.2299773
H -1.3223816 0.34018418 1.5808307
H 0.0045457897 1.587241 -0.82007384
H 0.7386692 0.29998744 1.1276821
H -0.09976799 0.12688255 -1.83999
H -1.4231515 -1.4007432 0.93444324
H 1.4837289 0.6965221 -1.2752906
