10

C 0.80780727 0.6628874 0.6961418
C 0.19141418 -0.0112257935 -0.5025673
O 0.08681092 -1.4262984 -0.4548336
C -1.113488 -0.6691261 -0.43927246
H 0.5855036 1.7350816 0.69068825
H -1.6556123 -0.6815717 0.5062955
H 0.51188165 0.3675237 -1.4745528
H 0.4193359 0.2270902 1.6213126
H 1.8962009 0.5417894 0.69086576
H -1.729854 -0.74615026 -1.3340781
