11

C -0.07223880 0.20461922 -0.50747945
N -1.22857891 -0.17369754 0.27363676
C -1.07740227 -1.41993168 0.45177990
N 0.12085106 -1.97167852 -0.16336521
C 0.76881950 1.28196871 0.16451531
N 0.70874251 -1.02603648 -0.71687252
H 1.11250954 0.93477257 1.14339057
H 0.17119397 2.18559414 0.30272454
H -0.39880865 0.54107023 -1.49884052
H -1.74503069 -2.07407767 1.00241267
H 1.63994263 1.51739701 -0.45190195
