10

O 0.9594398 -0.620179 1.8191823
C 0.4008322 -0.29786816 0.65360516
N 0.9535447 -0.3689378 -0.5158011
C -1.3145604 0.37012854 -0.6768484
C -0.07842856 0.07756406 -1.3493212
N -0.8815022 0.16949198 0.6308417
H -1.4455197 0.3231596 1.4523355
H -0.47162464 1.2816175 -1.2083652
H 1.8521912 -0.9382817 1.6211779
H 0.025627645 0.0033049274 -2.4268067
