10

O 1.2422093 0.5088592 -1.7534207
C 0.47265634 0.08419964 -0.73635584
N -0.061930627 -1.0933076 -0.6059245
C -0.75047195 -1.0237536 0.5928413
C -0.61403 0.20458779 1.1631331
N 0.18991578 0.9240385 0.2845387
H 1.3065039 -0.2437731 -2.3587234
H -1.3023642 -1.8744812 0.96647733
H -0.9894148 0.6378969 2.0774739
H 0.5069261 1.8757334 0.3699599
