10

O 1.5244308 -1.268633 0.8115259
C -0.14780243 1.3019913 -0.88088596
N -0.7200011 -0.6629348 0.47566378
C -1.2673013 0.474481 -0.27968764
C 0.52740073 -0.52262914 0.33642283
N 0.9003084 0.605055 -0.44521564
H -1.8797414 1.1066333 0.3718095
H -1.9310087 0.11894951 -1.0780579
H 1.8653799 0.8370921 -0.6353749
H 1.1283351 -1.9900054 1.3238002
