9

O 1.81014739 0.32634734 -1.61391518
C 0.98120198 0.27682026 -0.76062649
N -0.04907973 -0.56005673 -0.52004951
C -0.04634261 1.05530323 1.17231051
C -0.77948422 -0.17339447 0.65912046
O 0.92969304 1.24177086 0.31484525
H -0.24525717 -1.32253631 -1.14507173
H -0.77940532 -0.94261416 1.44046961
H -1.82147302 0.09836041 0.45291706
