9

O 2.1973798 0.21626423 -1.0548033
C 1.1798226 0.0005879916 -0.47535002
N -0.035975903 0.5847403 -0.49326304
C -0.12690444 -1.1795439 1.0405267
C -0.943515 -0.056121733 0.42276582
O 1.0562989 -1.0757974 0.4820207
H -0.21019214 1.3852273 -1.0758287
H -1.2913694 0.6079511 1.2228382
H -1.8255444 -0.48330787 -0.068906404
