9

O -0.6745877 2.2266462 0.7031504
C -0.2443696 1.1344703 0.48663145
N -0.7865846 0.11198518 -0.28473958
C 0.085269295 -0.9604893 -0.26070765
C 1.1611582 -0.6953036 0.62692076
O 0.94260967 0.6298954 0.9749296
H -1.5882207 0.25659552 -0.8742469
H -0.17583366 -1.9337648 -0.6573979
H 1.2805591 -0.770035 -0.7145402
