13

C 0.57336708 0.22856925 -0.74990955
N 0.85487584 -0.81548625 0.23858207
C -0.91588696 0.54068336 -0.94671641
O -1.44491985 1.40094958 0.01574845
C 0.45239609 -0.82529712 1.52717211
O -0.30776255 -0.02697633 2.05230603
H -1.46563674 -0.41254007 -1.01643263
H 0.99809107 -0.13200348 -1.69244030
H 1.51545621 -1.53173494 -0.02500640
H 0.88598537 -1.66386690 2.09960955
H -1.01927988 1.04974337 -1.91140168
H 1.09067823 1.15599658 -0.47874816
H -1.21736387 1.03196284 0.88723705
