13

C 0.6751096 0.212751 -0.665073
N 0.85342747 -0.72438014 0.44686347
C -0.7769912 0.39040324 -1.1275324
O -0.64524233 0.11161306 1.9694188
C 0.24199833 -0.66364676 1.6489518
O -1.5142035 1.2800134 -0.34562182
H -0.7496577 0.811747 -2.1385577
H -1.2447658 -0.6055572 -1.1980293
H 1.593561 -1.4051783 0.35983634
H -1.412776 1.0002341 0.5811259
H 1.0788459 1.196488 -0.3995183
H 0.6264825 -1.4175941 2.357908
H 1.274212 -0.18689372 -1.4897716
