10

O -1.305759 -1.6213002 -0.36251825
C 1.6502646 0.6174345 1.190724
N 1.1238395 -0.22904529 1.8455836
C -0.6127916 -0.9480086 -1.0856216
C -0.05339581 0.6478309 0.64127105
N -0.026235776 0.24306944 -0.7056848
H -0.39484397 -1.199343 -2.137234
H 0.62762195 0.68748784 -1.3305686
H -0.18008217 1.7161523 0.7862269
H -0.82861775 0.08572196 1.1578215
