12

C -0.76606774 1.1763437 0.0050630504
N -0.18381119 -0.15436395 -0.14438544
C 1.0618708 -0.41281256 0.40173292
N 1.7043903 0.48699358 1.0294073
C -0.85716844 -1.1484947 -0.821226
O -1.9389625 -1.0182874 -1.338133
H -1.7401899 1.1590039 -0.48207477
H -0.11469775 1.9193162 -0.46008125
H -0.8659029 1.4164362 1.0662127
H 1.4000983 -1.4432805 0.22872874
H 2.5903516 0.11903794 1.3555008
H -0.2899108 -2.0998924 -0.84074545
