12

C -0.81937474 0.27222493 -0.29030818
N -0.054163747 0.64211506 0.66338354
C 0.95508754 -0.24279967 1.2260023
N -1.6470692 -0.7350426 -0.46561122
C 0.33848473 0.98564804 -0.8512246
O 1.3246431 0.24829899 -1.3384603
H 1.5953932 0.34249178 1.8915796
H 0.4669146 -1.0606737 1.7693315
H -2.0888045 -0.87917376 -1.3635172
H 1.5325019 -0.29236975 -0.4629498
H 0.30609828 2.0399327 -1.0843774
H -1.9097112 -1.3206521 0.30615175
