12

C -0.78748125 1.14286912 -0.54780602
N -0.54702036 -0.08587734 -1.35171602
C -0.18374958 0.43963386 0.69570385
N 0.64870638 -1.84172030 -0.24759062
C 0.01209754 -0.64337321 -0.33313557
O 0.93309524 0.97222293 1.35033430
H -1.84651353 1.41312505 -0.48276547
H -0.20768161 2.00464367 -0.89512258
H -0.91179045 0.20200527 1.47600786
H 0.73312472 -2.26044471 0.66739981
H 1.62178703 1.13571504 0.69177052
H 0.53542565 -2.47879937 -1.02308046
