12

C -0.53810513 1.0391616 0.09751372
N -0.7112206 -0.07212195 -1.1136204
C 0.52226907 -0.84011984 0.700783
N -0.40621144 0.1476497 1.2459558
C 0.54105556 -0.3902924 -0.7442642
O -1.1177342 2.1000772 0.009384574
H 0.78176135 1.094787 -0.14017427
H 1.5082514 -0.7907545 1.1705356
H -1.3214979 -0.25179192 1.4400007
H -0.7547699 0.4153419 -2.0041354
H 1.3629773 -0.5910324 -1.4306939
H 0.13322423 -1.8609045 0.76871437
