9

O -0.64347004 -1.43965570 0.01609653
C -0.20656970 -0.20456835 -0.43964416
C 1.07522978 0.22620772 0.27430881
O 1.52980516 -0.45529401 1.15882915
C -1.20713765 0.86785288 -0.21566689
N -1.96280522 1.71932103 -0.02491787
H -0.00719409 -0.24738626 -1.51973167
H -0.11336343 -1.64067865 0.80543809
H 1.53550533 1.17420153 -0.05471175
