9

O 0.2997976 -1.0648034 -1.1549867
C -1.1226716 0.6337639 -0.08469233
C 0.14834547 -0.079834364 -0.26198232
O 0.9272793 0.6174091 1.8520352
C 1.100858 -0.045968205 0.85327965
N -1.7242608 1.6672875 0.12413193
H 2.0139422 -0.6422497 0.6650625
H -1.6981691 -0.3331604 0.046703413
H 0.054879338 -0.7524445 -2.0395513
