11

N 1.3011965 -0.21061869 -1.3741722
C -0.3997406 -0.46873364 0.32571784
C -0.31473348 0.431825 1.4741237
C 2.4357498 -0.42367908 -1.572889
C -0.072335534 0.024863392 -1.0682226
O -1.5665346 0.083711 0.8911634
H -0.00806258 1.4661692 1.3237925
H -0.28105316 1.097376 -1.138245
H -0.69286793 -0.48708287 -1.8119944
H -0.2706648 -1.5398517 0.48435196
H -0.13095362 0.02602127 2.466374
