11

N -0.50905883 -1.1212171 1.8883308
C 0.06404189 1.5011994 -0.30026427
C -1.1930103 -1.5669144 1.0130612
C 0.27513605 -1.004043 0.23148386
C -0.16641359 0.10958114 -0.67848897
O 0.89633375 0.8552253 -1.2525517
H 0.49518007 -1.9360998 -0.2889527
H 0.53708935 1.7159238 0.6588121
H -0.9873906 -0.12906507 -1.3544883
H 1.172945 -0.7037981 0.7765238
H -0.5848528 2.279208 -0.6934662
