10

O 1.79243447 -1.18973013 -0.59560928
C 0.26389151 -0.20868110 1.10749514
N -0.93466233 0.59970514 0.89748983
C -1.05210951 0.71652387 -0.36746283
C 0.82454420 -0.54708890 -0.27235783
N -0.07126450 0.08081769 -1.12945515
H 1.00257064 0.34426366 1.69705622
H -1.84642488 1.26494415 -0.86228238
H 0.02387081 -1.12306021 1.65984562
H -0.00285028 0.06230578 -2.13471928
