9

N 0.10540836 -1.55475718 0.36450521
C 0.52573952 0.60326752 -0.20760809
C 1.09817466 -0.58365300 0.01123869
C -0.92873479 0.38325820 0.01562507
N -1.03217836 -1.03545768 0.37347236
H -1.55189063 0.56263963 -0.86897188
H 0.99818311 1.53565009 -0.48485463
H 2.13533379 -0.89063203 -0.03786120
H -1.35003545 0.97968447 0.83445437
