9

N -0.77444667 0.24496461 -0.87454504
C 0.57283384 0.30940023 -0.76161236
C 0.870831 -0.11140811 0.5145393
C -0.38604325 -0.4080534 1.087107
N -1.3792528 -0.18895419 0.237591
H -1.3409023 0.47950202 -1.6737344
H 1.1968862 0.6414024 -1.5787388
H 1.8472351 -0.19407037 0.9678645
H -0.6071409 -0.77278316 2.0815287
