11

C -1.3068063 -0.78589386 0.68099076
N -0.12941343 -0.050050724 0.26424247
C 0.3976218 0.09901226 -0.9718805
C 1.4896448 0.9021975 -0.76802766
N 1.5673915 1.1912026 0.555701
N 0.5899399 0.6152118 1.1731027
H -1.3647379 -0.7050878 1.7657799
H -2.2036266 -0.35304746 0.23259021
H -1.2200203 -1.8361096 0.39385298
H -0.029333806 -0.36039028 -1.8502252
H 2.2093406 1.2829554 -1.4761267
