12

O -0.54557073 0.6167604 -1.6978267
C 0.18614551 1.1727874 -0.63296515
C 0.3629345 0.16292487 0.48737335
C -0.71242446 -0.7889215 0.8354172
N 0.42263883 -1.2216462 0.018052898
H -0.2329056 -0.29952663 -1.7656927
H -0.3651406 2.0485222 -0.27246302
H 1.180197 1.5138198 -0.96453094
H 1.0470728 0.45595524 1.2813267
H -1.6563108 -0.73857987 0.30310145
H -0.773044 -1.1450788 1.8626618
H 1.0864078 -1.7770168 0.54554534
