12

O 0.91910964 -1.0295331 1.195973
C -0.49047855 -0.20590033 -0.61068165
C 0.7400578 -1.0099638 -0.20377043
C -0.83845633 1.837989 0.8236826
N -0.33359602 1.1970285 -0.20329225
H -1.3784541 -0.59347963 -0.103770986
H 0.9895112 -0.11665541 1.5024247
H -0.6481158 -0.2532535 -1.6943519
H 0.6187098 -2.0511584 -0.51990426
H 1.62585 -0.6033077 -0.72062844
H 0.3154219 1.7127163 -0.78946036
H -1.5195595 1.1155185 1.32378
