11

C 1.0098861 -0.809096 -1.1436577
C 0.2164785 -0.1624387 -0.0603465
C -0.8827918 0.6322841 -0.05175861
C -1.0921757 0.8821155 1.3313648
N -0.20037611 0.29018715 2.0762434
O 0.6306366 -0.37273654 1.2009337
H 1.0075222 -1.8976034 -1.0308108
H 0.58193034 -0.5559044 -2.114335
H 2.0501149 -0.46953177 -1.1177303
H -1.4552082 0.986847 -0.8951063
H -1.8660173 1.4758768 1.8052034
