10

O -0.06861433 -1.38244525 -0.01971289
C -0.34436842 -0.63473734 -1.10416372
O 0.38913587 1.95935961 1.02662372
C 0.27321826 -0.48216452 1.03899903
C 0.17126796 0.92535916 0.44087683
C -0.23889748 0.69488668 -0.95154303
H -0.62263552 -1.20986927 -1.98136681
H -0.43128099 -0.62540239 1.86333404
H 1.28738229 -0.70559829 1.38009957
H -0.41520774 1.46061181 -1.69314678
