10

O 0.99262077 0.5050226 -1.79743
C 0.38022822 0.18394661 -0.6563058
C 1.1487861 -0.2774234 0.43616596
N 0.5674829 -0.6021679 1.5684007
N -0.7637884 -0.4929757 1.6822599
C -1.4285327 -0.05611723 0.6288436
N -0.9210835 0.29725108 -0.5661233
H 0.30294636 0.7952116 -2.4166064
H 2.2275202 -0.37878615 0.3785
H -2.5061798 0.026038444 0.74229527
