10

O -0.50291806 -1.5872542 0.86762625
C 0.5619069 -0.6484852 -1.1342845
C -0.20352785 1.4285972 0.35489243
N 0.90057546 0.5319996 0.4570203
N -1.1933427 0.62718815 0.19572952
C -0.21495533 -0.48602232 0.14357482
N 1.4225618 0.28098524 -0.91919357
H -0.18716265 2.5129757 0.41522512
H 0.50185263 -1.3246622 -1.9797446
H -1.08499 -1.3353218 1.5991541
