9

O 2.5040085 -0.30599174 -0.051205955
C 1.4281102 0.22014119 -0.13316852
C 0.21175627 -0.23523499 0.6634425
C -1.0247312 -0.093713395 -0.10587251
C -2.0146236 0.03890371 -0.777049
H 1.2560524 1.1000781 -0.7880579
H 0.16367413 0.39289835 1.5635777
H 0.373899 -1.2657384 0.99471194
H -2.898146 0.14865716 -1.3663781
