11

O -2.6260526 0.5592006 0.52927953
C -0.12429041 -0.5845986 0.10940805
N -0.35907128 0.74931395 0.38434723
C 2.4283478 -1.0304832 -0.31126952
C -1.6340629 1.2405251 0.6079384
C 1.1253601 -1.0144335 -0.32120186
H -1.6439781 2.3116999 0.8708605
H 2.980094 -1.174115 -1.2428268
H -1.0065309 -1.2154235 0.1474476
H 0.41878647 -1.2015443 -1.2602165
H 0.44139802 1.3598589 0.4862333
