11

O -1.4765592 1.6260122 1.2706965
C -0.7536408 0.84072876 0.6884428
N -0.7590285 0.5593652 -0.65314585
C 0.22320642 -0.4263459 -1.0355376
C 0.87388325 -0.7428308 0.2895814
C 0.32314062 -0.026136354 1.2633551
H -1.396417 1.0124685 -1.2874805
H 0.95387447 -0.033521477 -1.7543836
H -0.23220122 -1.321827 -1.4794608
H 1.6784348 -1.4646249 0.37906086
H 0.565307 -0.023287991 2.3188717
