9

N 0.628097 0.7602938 -0.37900588
C -0.7833331 -0.6744906 0.7833625
C -1.0950264 -0.44695994 -0.6058417
C 0.4549578 0.082830235 0.8397039
N -0.30232966 0.40194198 -1.2430453
H 0.6905736 -1.0630267 0.70883954
H 0.96657854 0.43844864 1.7286632
H -1.9436601 -0.8510097 -1.1468314
H 1.3841423 1.3519723 -0.68584466
