9

N -0.13434044 -1.1381972 -0.68542284
C 0.35965458 0.65827733 0.6080269
C -0.8774909 1.0070382 -0.14198345
C -1.0605402 -0.17431667 -0.8818366
N 0.7141359 -0.7004203 0.1783439
H 1.1747274 1.3537306 0.37806773
H 0.18560691 0.68396276 1.690233
H -1.8509066 -0.40166524 -1.5888227
H 1.4891531 -1.2884096 0.44339406
