11

O 1.3653032 1.2013702 -0.4215512
C 0.69790906 0.21204405 0.30998796
C -0.7936849 0.5255503 0.5845103
N -1.1140591 -0.7126445 -0.12756902
C 0.16763869 -0.9726777 -0.5238278
O 0.6658847 -1.7719183 -1.2769208
H 1.9745888 0.7528138 -1.0228242
H 1.2536076 -0.097244926 1.204747
H -1.1007365 0.52938944 1.633306
H -1.123495 1.4338906 0.07670172
H -1.9929564 -1.1005732 -0.43656003
