11

O -1.7218348 1.342591 -0.23829754
C 1.1052464 -0.2599895 0.52248544
C -0.6201425 0.5987074 -0.01737495
N 0.31066567 0.92565984 1.0031637
C -0.027901553 -0.51949257 -0.45014927
O -0.3492527 -1.5387592 -1.3123442
H -2.2125013 0.93570256 -0.962749
H 1.252365 -0.99688077 1.3187298
H 2.0692186 0.018664036 0.08287645
H -0.601499 -2.3122394 -0.7894821
H 0.7956365 1.8060362 0.84314173
