12

C -0.24636528 0.55763043 0.88188666
N -0.88895177 -0.57884427 0.16785935
C 0.15754930 -1.24366225 -0.62153060
N 0.37170172 1.09970896 -0.34356116
C -0.34770849 0.06293714 -1.06157080
O 0.58226379 0.28739255 1.95379614
H -0.94935140 0.23309030 -1.94876554
H 0.05796328 2.04030799 -0.55592326
H -1.04839184 1.18811517 1.27586060
H 1.18197505 -1.30454979 -0.26020376
H 1.34517077 -0.20594046 1.62832334
H -0.21585482 -2.13618602 -1.11617095
