12

C -1.0538878 0.020298976 -0.30158156
N -0.13549206 -0.9519058 -0.10467066
C 0.87910974 0.076222114 -0.77107453
N -0.37062353 0.9342596 -1.0321906
C -0.09547292 -0.5038229 1.3067026
O 1.6510516 0.6968398 0.06032036
H -2.1159968 -0.011926456 -0.094498426
H -1.0031501 -0.74916863 1.8653748
H 0.788534 0.65654886 0.9549525
H 1.2928438 -0.3522619 -1.6858727
H 0.7950252 -0.90877986 1.7937465
H -0.631941 1.0936962 -1.9912082
