12

N -0.001799492 -1.1861368 -0.89741147
C -0.77001214 -0.036993757 -1.0735666
N 0.40471092 0.28035045 0.8371329
C -0.51332283 0.835447 -0.023737654
O 1.571924 -1.8601539 0.7178866
C 0.57585216 -0.85427487 0.20738906
N -1.0051849 2.1316528 0.21372552
H -1.4218104 0.07990201 -1.9291103
H -1.9943985 2.1925848 0.026346106
H 1.5292302 -2.532712 0.005869416
H -0.82900625 2.396046 1.1766369
H 2.453817 -1.4457114 0.7388393
