12

N -2.19348586 0.86987169 0.17877899
C -0.57834115 -0.73030276 -0.93755627
N 0.13570467 0.61533873 0.73900025
C -0.95043726 0.24163949 -0.01774333
O 2.45602309 -0.13466224 0.62952012
C 1.01733353 -0.18178308 0.19075886
N 0.78051315 -0.99636540 -0.78123380
H -2.20416486 1.33912692 1.07757068
H -2.95352051 0.20798067 0.13859318
H 2.80007029 0.76507959 0.48108486
H 2.85877692 -0.76193966 -0.00722003
H -1.16847207 -1.23398345 -1.69155353
