12

N -1.103391 0.04055382 0.1667153
C 1.1402946 -0.37630007 -0.011657319
N -0.38148588 -2.0787547 1.0397233
C -0.07740318 -0.85319597 0.43796194
O -0.68114805 2.2907608 -0.94086283
C -0.40516382 0.9497959 -0.43842575
N 0.8881444 0.853561 -0.61318034
H -1.1791635 2.254418 -1.7754
H -1.2028081 -2.001365 1.6240284
H 0.48200274 2.1892166 -1.0815363
H 0.39641196 -2.446623 1.571158
H 2.1237102 -0.82206774 0.021475546
