11

N 1.9656161 -0.2967744 -0.0131648835
C 0.3223637 -0.4223945 1.1006091
C -0.42756206 0.57049996 0.42430112
C -1.2351557 -0.055857442 -0.7486272
C 0.67300117 -0.38672242 -0.2796832
O -0.12684652 -0.81008005 -1.3122619
H 2.234527 0.66404253 0.17460397
H -0.4688326 1.6429906 0.59935695
H -1.5476142 0.71353054 -1.4562151
H -2.0584338 -0.7220486 -0.48924923
H 0.66893685 -0.8971862 2.0003304
