11

N 1.9168723 0.6233769 -1.2063719
C 0.8875976 0.26713827 -0.5642128
C 0.05410854 1.1215571 0.30453643
C -0.9331662 0.38347894 0.7976415
C -0.80568343 -1.0200608 0.2765894
O 0.35218728 -0.99276197 -0.55951685
H 2.3043132 -0.15787643 -1.7325801
H 0.27115738 2.1686907 0.4640811
H -1.7255906 0.69485164 1.4689662
H -1.6695122 -1.3313504 -0.32179183
H -0.652284 -1.7570436 1.0726589
