14

C -2.0944672 -0.042641472 0.677335
N 0.6435537 0.375296 0.21968566
C 2.0871027 0.34831774 0.08403339
O 0.4473 -0.6443348 -1.7834865
N -1.4423363 -0.48812744 -0.5375013
C -0.19353707 -0.2640947 -0.65577674
H -0.25372875 -1.0253683 -2.3333387
H 2.3689835 0.636807 -0.9306806
H 2.5074596 1.0770453 0.77980626
H 2.517206 -0.63903755 0.2973845
H -3.1628647 -0.25818393 0.60129297
H -1.7212144 -0.5603706 1.5770906
H 0.28130832 0.44493917 1.1570258
H -1.9847653 1.0397536 0.84712917
