14

C 2.06789757 -0.42524339 -0.16538442
N 0.74156347 0.00693148 0.23088039
C -0.29191051 0.13262019 -0.65912508
O 0.13696225 0.10564104 -1.94065708
N -1.53144896 0.29938921 -0.41537977
C -1.94463672 0.34598824 0.97266349
H -0.66709210 0.25878187 -2.45931859
H 2.74419790 -0.26114487 0.67576551
H 2.41529017 0.17330613 -1.01000515
H 2.10362728 -1.48462472 -0.45141347
H 0.45138927 -0.23197761 1.16543901
H -3.01777919 0.54717904 1.01268432
H -1.77207263 -0.60637139 1.50195926
H -1.43598848 1.13952468 1.54189153
