11

O -1.8724048 -0.08754483 -0.10077784
C -0.62379 0.49795145 0.08304135
C 0.27113914 0.07522362 1.2661387
O 1.3690112 -0.18292923 0.340956
C 0.5424441 -0.002217717 -0.74111235
N 0.6992689 -0.26387686 -1.9568026
H -1.7474064 -0.9424156 -0.5300095
H -0.75037354 1.5824045 0.023941182
H 0.54523975 0.83964527 1.9948261
H -0.05134703 -0.848531 1.7554742
H 1.6182188 -0.66770965 -2.135675
