17

C 0.36088264 2.6184886 1.3169888
N 0.029543271 -0.75167465 -0.44479567
C 0.36586273 0.5674666 -0.5217314
O 1.2617993 1.0179147 -1.2044146
N -0.42175493 1.4384546 0.28065112
C 0.6761585 -1.6904837 -1.3455193
C -0.970826 -1.2857634 0.46514213
H -0.45228472 2.5248034 0.10392388
H -0.9422901 -0.7749722 1.4334149
H -1.9880446 -1.2227257 0.051512744
H 1.3979703 -1.1384088 -1.9468284
H 0.20633163 2.137685 2.2910626
H -1.2930156 1.0959104 0.65729994
H 1.1922083 -2.4703746 -0.7764514
H -0.7458424 -2.3399053 0.6494959
H 1.3893476 2.4326148 0.9922301
H -0.066045254 -2.1590292 -2.001982
