10

O 1.21667857 1.15643731 -0.24729769
C 1.12903507 0.29010557 -1.23125415
O 0.29304904 1.71394154 1.76499541
C 0.28370941 0.97320006 0.83830857
C -0.55621665 -0.23284755 0.49520285
C 0.00193644 -0.66570454 -0.85547025
H 0.41429750 -1.68185428 -0.85919437
H -0.44108420 -0.97647098 1.28766282
H -1.60746228 0.06686120 0.47402789
H -0.73394306 -0.64366800 -1.66698116
