10

O 0.9578538 2.0923939 -1.1625848
C 0.6729658 1.1141808 -0.5497936
O 1.1278372 0.7551204 0.70791155
C 0.49890152 -0.53816396 0.56693655
C -0.966996 -0.3685562 0.50754094
C -0.12060453 -0.14949597 -0.7442551
H 1.0772871 -1.4057362 0.85014063
H -1.5582609 -1.2788557 0.47882485
H -1.4319369 0.47442085 1.0137765
H -0.25704727 -0.6953076 -1.6684976
