11

O -0.72709080 2.02718626 1.21967068
C -0.16187864 1.20670514 0.29319881
C 0.59304188 -2.10657398 -1.02701715
C 0.14258871 -1.16337413 -0.25772446
C -0.32633296 -0.24352575 0.54638848
N 0.45879579 1.66022081 -0.71357260
H 0.45568233 2.67949120 -0.69303665
H -0.00666760 -2.49777652 -1.84427362
H 1.58863009 -2.51582679 -0.88259971
H -0.86111936 -0.56021859 1.44169213
H -1.15564932 1.51369266 1.91727409
