11

O -1.0967027 1.4375856 1.517196
C -0.32156146 0.47561276 0.9454725
C 0.4017662 -0.5326246 -1.1017239
C 1.4990158 -1.2837039 -1.2403221
C -0.43933317 0.327147 -0.50994885
N 0.44890702 -0.26301643 1.6337227
H -1.5208632 1.9745175 0.835186
H 0.41299558 0.010731697 2.6154106
H 1.3074286 -2.3560627 -1.3658789
H -1.1939365 0.86029214 -1.0765482
H 0.50228363 -0.6504791 -2.2525651
