10

C 0.58822936 -0.42832553 0.1444627
C -0.41236886 0.19959304 -1.0269907
O 1.7934968 -0.4995379 -0.2337516
C 0.066587634 0.22756197 1.2957274
H -0.0154930195 -1.40493 0.21335185
H -0.1397716 -0.40155607 -1.893424
H 0.69893897 0.822695 1.9524863
H -0.1157636 1.2377453 -1.1838886
H -1.4747055 0.11357883 -0.80777556
H -0.98915017 0.13317545 1.5398022
