10

C -0.55781173 0.17699465 0.01609297
C 0.70073444 0.51830298 0.80065578
O 0.72019899 -1.37657538 -1.30975765
C -0.34103558 -0.85876951 -1.05980155
H -0.98238543 1.06322413 -0.47721074
H -1.25493226 -1.12915940 -1.63627550
H -1.35580274 -0.20316124 0.67001872
H 1.48284416 0.89862708 0.13643668
H 1.09973088 -0.36801289 1.30307854
H 0.48845944 1.27852965 1.55676278
