10

C -1.1620167 0.06319579 -0.56920594
C 0.34786522 0.18822065 -0.51098186
O 0.9987907 0.5364439 -1.4663445
C 0.99138504 -0.15323254 0.81853753
H -1.5069152 0.16795476 -1.6010752
H -1.4899303 -0.897559 -0.15860222
H -1.6153919 0.85031235 0.04315469
H 0.920884 -1.2338392 0.98786163
H 2.0453231 0.13831457 0.8110545
H 0.4700062 0.34018877 1.6456014
