15

N 0.4460451 0.26346743 -0.9632044
C 0.25514394 0.75773793 0.3884671
O -0.5575692 -0.21903838 1.0274595
N 1.5361347 0.99419177 0.9725691
C -0.5747034 -1.3926781 0.22224958
C -0.4920344 -0.8226856 -1.1898756
O -0.3988134 1.9827752 0.52447784
H 0.42189622 1.0335393 -1.6210626
H 0.29364684 -2.028476 0.43867788
H -1.4872868 -0.4864989 -1.5253252
H 1.4236624 1.4332433 1.8760378
H -0.09906255 -1.537265 -1.9176985
H -1.3134271 1.84974 0.26368
H -1.4917412 -1.9473944 0.43396074
H 2.0381088 0.11934148 1.0695866
