15

N 0.9701207 -0.4001385 -0.35737005
C -0.0789477 0.06666595 -1.0931691
O -0.27193835 1.365394 -1.2460363
N -0.5832009 -0.7402266 -2.0624647
C -0.3570228 0.13906668 1.5792601
C 1.0630449 0.22520617 0.96032387
O -1.2757056 0.41575226 0.5885644
H -1.3694113 -0.33648387 -2.546785
H 1.3613272 1.2683262 0.8101106
H 1.0493526 -1.4064128 -0.353596
H 1.8378255 -0.28316137 1.5415311
H -0.6411825 -1.7271191 -1.8819996
H -0.499591 -0.8785444 1.9926221
H -0.40299347 0.8367717 2.4305482
H -0.80167764 1.4549035 -0.36153936
