11

O -2.03192086 0.27606781 -1.36655443
C -1.17697103 0.45054239 -0.55931253
O 0.97739019 -0.71128526 -1.01996080
C 0.28307138 -1.70680102 0.31493573
C 0.02059703 -0.29657016 -0.00181855
C 0.23181609 0.96301249 0.82765841
O -0.97357038 1.53151720 0.25692441
H -0.45021642 -2.28537496 -0.27238143
H 0.14251686 0.81681956 1.90566351
H 1.10394312 1.57115879 0.57622268
H 1.87334383 -0.60908692 -0.66137718
