11

O -1.8009648 0.65219945 -1.6462708
C -1.1577781 0.0286598 -0.86715627
O -1.214495 -1.3155609 -0.6067741
C -0.2202059 -1.2405494 0.45346227
C -0.044374753 0.23546346 0.13671167
C 1.1270976 1.1012393 0.06798077
O 0.088865735 1.295991 1.0273046
H 0.62786967 -1.8948447 0.2475774
H -0.66489244 -1.4595169 1.4261777
H 1.188315 1.8573632 -0.711699
H 2.0705628 0.7395556 0.47268558
