11

O -0.33202592 -2.3655295 -0.5452257
C -0.5067964 0.95642227 -1.272732
O -1.4810121 0.55457324 0.16485386
C 0.98334473 0.21622857 0.8990741
C -0.14757821 0.1251003 -0.11608085
C 0.10937223 -1.3734415 -0.062109854
O 1.1606232 -1.2256621 0.79882413
H 0.6803305 0.5023213 1.9077499
H -1.39855 1.5390407 -0.28890738
H -0.9419402 0.32001975 -2.0549922
H 1.8742323 0.750927 0.5695461
