12

O -1.2836072 1.5144852 0.37340036
N -0.10068115 0.99380594 -0.17148134
C 1.1800004 -0.5368548 0.37324342
C -0.1586712 -0.429056 -0.30063757
N 0.9646187 0.8683152 0.8112834
C -1.1321912 -1.224022 -0.7079716
H 1.7221309 1.4797097 0.5150802
H -1.3631382 2.378118 -0.050492298
H -1.0127729 -2.3014367 -0.6854641
H 1.244966 -1.2496318 1.1993533
H 2.019542 -0.67771137 -0.31697482
H -2.0801961 -0.8157212 -1.0393391
