12

O 0.52083635 -1.6172085 1.662779
N -1.4481795 0.16560464 -1.0844985
C 0.27779183 1.0031903 1.0887982
C 0.36940983 -0.0017622634 0.1553405
N 0.40387475 -1.3074496 0.33612332
C -0.038264964 0.29758322 -1.2428529
H -1.8838646 0.32733327 -1.9982122
H 0.4169957 -0.42488158 -1.944276
H 0.3168527 1.3037641 -1.5512869
H 0.5225322 -2.581172 1.6725997
H 0.34593937 0.80451435 2.1508088
H 0.1960763 2.0304842 0.7546772
