12

O 0.8758702 1.9606894 -1.2856082
N 1.0105194 1.4144115 -0.009226747
C 0.31187773 0.36550182 0.10465931
C 0.13361873 -0.6072517 1.2428573
N -0.56223434 -1.5139061 0.29657507
C -0.58735645 -0.47855487 -0.76899594
H 1.4694571 2.720911 -1.2456857
H -0.49198645 -0.2162159 2.055825
H 1.0498044 -1.0270233 1.6671791
H -1.481765 -1.794601 0.6144086
H -1.5668478 -0.01727591 -0.9512473
H -0.16095757 -0.80668503 -1.7207407
