9

O -0.18981664 -1.5248406 0.7500191
C 0.0954754 1.476416 2.2429013
C 0.4520612 -0.34139058 0.39823708
C 0.023419816 0.18924339 -0.9107829
C -0.3485032 0.58004254 -1.982576
N 0.26717904 0.6729696 1.4011624
H 1.5172998 -0.58582413 0.37204987
H -0.672697 0.9326141 -2.9376993
H -1.1444185 -1.3992302 0.66668826
