12

O -0.66350293 -0.13804993 1.6913005
C -0.11381849 0.23751876 -1.3744667
C 1.8566039 0.6550904 -0.13756162
O -0.51969004 -0.77732164 -0.5477994
C -1.373876 -0.45017236 0.5304409
O 1.0987679 0.6813733 -1.1935177
H 2.7933118 1.1781993 -0.27240625
H -0.17635679 -0.9259454 1.958559
H -2.0059185 -1.3318201 0.6769327
H 1.4566942 0.29268157 0.80075705
H -1.97791 0.42964643 0.29347473
H -0.37430516 0.1487997 -2.4257135
