12

O -0.6653907 -1.4500164 0.8821707
C -0.060564775 -0.22455901 1.2002791
C 0.4442086 0.4535314 -0.07407831
O 1.3305376 -0.42353934 -0.72048885
C -0.70951766 0.7738079 -0.9983288
O -0.7228369 0.3803996 -2.1410801
H -0.034010038 -1.9072707 0.3073796
H 0.7861533 -0.3475892 1.8903737
H -0.81637585 0.39791876 1.6929356
H 0.9398621 1.4022542 0.18949772
H 1.0291151 -0.46002856 -1.643493
H -1.5211809 1.4050912 -0.5851673
