12

O -0.07123673 -1.1489594 1.7773851
C -1.0061641 1.2121526 -0.20536792
C 0.28816563 -0.099771954 -1.575675
O 0.37471873 -0.9440434 -0.64816755
C 0.7489571 -0.3296949 1.1163503
O -0.39289 0.98196715 -1.4414302
H 0.59428775 0.7070651 1.3667645
H -1.5394665 2.153499 -0.28116637
H -1.6097513 0.3488391 0.08755177
H 1.7613072 -0.6588316 0.9081848
H 0.816452 -0.17960328 -2.523896
H 0.03562012 -2.0426185 1.4194667
