10

N -0.1574077 -0.7518108 -0.84436935
C 1.060303 -0.2856729 -0.41920003
C 0.835872 0.5973714 0.608673
C -0.5720157 0.66536844 0.8103153
C -1.1567179 -0.17854111 -0.10200919
H -0.296451 -1.4149827 -1.5882491
H 1.9768499 -0.6208804 -0.88201475
H 1.5929735 1.1388401 1.1591598
H -1.0893512 1.2680403 1.5437753
H -2.1940548 -0.41773227 -0.28608108
