10

N -1.4780713 0.9698168 0.0054855286
C 0.83386856 0.35138968 0.015503964
C -0.22828038 -2.0288725 -0.35763216
C 0.4874829 -0.93729174 -0.06825797
C -0.25129163 1.3310119 0.009051358
H 0.07163093 2.381662 0.007091367
H -0.4580311 -2.6667194 0.5092183
H -2.0919104 1.7814052 -0.021790607
H 1.2452079 -1.8410014 -0.19316319
H 1.8693944 0.65859914 0.09449346
