10

C -0.9342907 0.3803244 2.3656743
C -0.47579303 0.2100648 1.2654258
C 0.064833365 0.0064377575 -0.034296796
C 1.3411032 0.11802748 -0.54891384
N 1.3077366 -0.19838329 -1.8663307
N 0.08940689 -0.4982498 -2.2002373
N -0.66474295 -0.38001767 -1.1117032
H -1.331062 0.5324743 3.3469234
H 2.2558537 0.4025218 -0.05270696
H -1.653045 -0.57319975 -1.1638348
