10

C 0.14987232 0.988344 -2.3263876
C 0.47688404 0.9834746 1.3177783
C 0.134328 0.65379953 -1.1690701
C 0.11689383 0.26838714 0.20734437
N -0.350432 -1.0752621 0.4072782
N -0.45314032 -1.8991874 2.6341004
N -0.4047035 -1.5078442 1.607768
H 0.8015926 1.9826578 1.0079823
H 0.16542362 1.3009241 -3.3528776
H -0.6367185 -1.6952933 -0.33391666
