11

O -2.29179259 -0.39566765 0.34377648
C -0.09285994 0.05734451 1.32724326
N 1.10800775 0.17603643 0.92099445
C 1.05913813 -0.14570561 -0.52312185
O 1.74400747 0.77764496 -1.28423924
C -0.98021573 -0.25657385 0.17541446
N -0.33593306 -0.33644326 -0.91774874
H -0.41544199 0.18991241 2.35427153
H 1.29169269 1.62876042 -1.21817907
H 1.59114204 -1.09640990 -0.65715880
H -2.67774483 -0.59889827 -0.52125297
