11

O -0.79893535 -1.4602207 -1.3282593
C -0.3484856 1.1603198 1.1111664
N 0.89432055 -0.2966579 -0.33899596
C 1.0405059 0.7774947 0.66749364
C -1.1644391 0.31523803 0.37263653
C -0.4015037 -0.5220468 -0.4665469
H 1.5610521 1.6353772 0.22977668
H -2.2508821 0.27011275 0.4017329
H 1.6288583 0.41676778 1.5173668
H 1.6034093 -0.7904745 -0.85810024
H -1.7638999 -1.5059103 -1.3082706
