9

O -1.51538793 0.46939926 -0.65881501
C -0.96694517 -0.73090057 -0.19795770
N -0.15466885 0.05430299 -1.09543796
O 1.67847660 1.15842426 0.13958781
C -0.01870072 -0.47838890 0.94994101
C 0.64671387 0.32735797 0.11049735
H -1.43719700 -1.65656124 -0.51700148
H -0.00325210 -0.70955695 2.00320252
H 1.77096099 1.56592310 -0.73401653
