12

N 1.1440636 0.48542735 0.52670014
C -1.0074984 0.5002785 -0.30252665
N -0.6064174 -0.70579004 -0.44536027
C 0.71605456 -0.64297456 0.074694276
O -2.206183 0.95433515 -0.6445075
C 0.033954892 1.3925855 0.31112364
N 1.4528846 -1.7948443 0.019372087
H -0.32234266 1.8373998 1.2464906
H 0.3026193 2.2136984 -0.36566365
H -2.7012618 0.20942746 -1.0189718
H 0.91584915 -2.6482768 0.0028686277
H 2.2782772 -1.8012667 0.59578043
