12

N -0.8694331 0.12326163 -0.4963949
C 0.45051643 0.10161822 -0.7487656
N 1.271797 0.00070636807 0.30626667
C -0.95304096 -0.027931774 0.82709223
O -2.1303663 -0.058074385 1.4710921
C 0.29885316 -0.15582195 1.4226522
N 0.9348698 0.10510568 -2.0408936
H 1.0192115 -1.0735586 0.84743196
H -2.8179224 0.025907466 0.79786944
H 0.29675588 0.5086045 -2.7087553
H 1.8850567 0.43218574 -2.1207204
H 0.613702 0.017997105 2.443125
