12

N -2.1326706 0.5600044 -0.07907554
C -0.78707993 0.19674684 -0.04107417
N 0.15262777 0.82066387 0.6358112
C 1.3075819 0.16347446 0.30596408
O 2.4960341 0.5433862 0.8255131
C 1.0850259 -0.86762553 -0.5552344
N -0.3003004 -0.83450925 -0.7656793
H -2.2927656 1.3151374 0.57738537
H -2.7584994 -0.20946203 0.120427884
H 2.3083625 1.2774425 1.4248788
H 1.7329519 -1.611875 -0.98809654
H -0.8112687 -1.3533833 -1.4608207
