12

N -2.1288958 0.5601059 -0.07784883
C -0.78549665 0.19795771 -0.040740382
N 0.15277696 0.82230765 0.63345945
C 1.3084754 0.16334663 0.3032612
O 2.4935908 0.5441729 0.8263447
C 1.083254 -0.86699384 -0.55357146
N -0.2996943 -0.8356524 -0.7630386
H -2.292523 1.3133329 0.57835954
H -2.755258 -0.21033624 0.117116496
H 2.3029695 1.2764207 1.4265922
H 1.7293743 -1.6083137 -0.9925436
H -0.80857307 -1.3563479 -1.4573909
