10

O -1.6999652 1.2875335 0.05444969
C 0.64071965 0.7112695 0.42149174
C -0.6509561 0.4611217 -0.050646305
N -0.7268568 -0.73765486 -0.63249105
C 0.5048402 -1.2499185 -0.52485955
N 1.4309137 -0.45600906 0.035385467
H -2.4521518 0.839778 -0.35367677
H 1.0874045 -0.24135612 1.1942704
H 0.74876285 -2.2501092 -0.8584173
H 1.1172892 1.6353452 0.71449363
