10

O 1.5670578 0.59998953 1.1451585
C -1.2581255 -0.8691738 -0.07448859
C 0.16241331 0.5356746 -0.89796793
N -0.3432321 -0.7111237 0.98984087
C 0.50380176 0.12725614 0.5055504
N -1.0566674 -0.21219946 -1.1581292
H -2.0993433 -1.5413342 0.062173493
H -0.0038738928 1.614675 -0.98616797
H 0.94847876 0.26319718 -1.6111833
H 1.5794903 0.19303855 2.0252137
