11

C -0.48369048 -1.23542199 1.30269156
C -0.54150256 0.80996196 -0.88094472
N 0.63000906 0.31975984 -0.11320389
C 0.48480534 -1.11638913 0.29026003
N -1.33871124 -1.31570144 2.09621078
H -1.42290363 0.70778748 -0.24440959
H -0.64895105 0.16410950 -1.75231814
H 0.78628800 0.95899501 0.67780631
H -0.38973783 1.85274400 -1.17742426
H 1.45587576 0.37755241 -0.70953669
H 1.46851833 -1.52339772 0.51086883
