11

C 0.18646987 0.42861423 -0.67672
C -0.7398008 0.7733214 -1.7011348
N -0.005883287 -0.9220061 -0.08218925
C 0.3126743 0.14961568 1.3586066
N -1.5721288 1.0654978 -2.4537165
H 1.2358145 0.7235213 1.3692224
H 0.3901738 -0.7077648 2.047276
H -0.5587987 0.7561218 1.5712415
H -0.993934 -1.1619611 -0.041989032
H 1.2291644 0.59987724 -0.9107552
H 0.5162491 -1.7048373 -0.47984156
