11

O -2.0137565 0.98647165 1.3781862
C -1.0799173 0.612282 0.72397524
N -0.9767098 -0.5496272 -0.016780643
C 0.4074014 -0.8072636 -0.3581314
C 0.94262177 0.6305278 -0.32343742
O 0.07935619 1.3124032 0.5895697
H -1.6063153 -1.2961277 0.23341313
H 0.9051737 -1.4440659 0.38287002
H 0.5114816 -1.2616073 -1.3450993
H 0.86254656 1.1108419 -1.3041704
H 1.968118 0.7061649 0.039604686
