10

O -1.23995127 2.27408426 0.37014365
C -0.73102885 0.06264809 -0.24103283
C 0.16085132 -0.81312810 0.49668633
N -0.70183826 -1.07994814 -0.74459241
O 2.07031267 -0.21032576 -0.77063216
C 1.63061969 -0.70948316 0.23702545
C -1.36071772 1.38886060 -0.43897512
H -0.15985803 -1.29144494 1.41857070
H 2.28643670 -1.10634011 1.03619206
H -1.95482636 1.48507727 -1.36338557
