10

O 0.24129681 -1.2309594 -1.8305246
C -0.27818033 0.67973447 0.23874989
C 0.017025296 -1.643852 -0.71828187
N -1.4431857 0.35398546 -0.07205641
O 1.6943345 1.8168762 0.82105786
C 0.5940251 1.8734914 0.33218917
C -0.4770798 -0.75142556 0.3761679
H 0.14780845 2.803636 -0.058296595
H 0.17753503 -2.7025545 -0.43606865
H -0.67357945 -1.1989323 1.3470633
