11

C 0.5935789 0.73312277 2.2425425
C 0.3026701 0.16504252 0.9278595
C 0.07324937 -0.31591287 -0.15028483
C -0.1437671 -0.9684393 -1.4396781
O 0.33021432 -2.051967 -1.7130895
N -0.9321118 -0.2607127 -2.299232
H 0.4600573 -0.021317797 3.021883
H -0.06563428 1.5761458 2.4623525
H 1.6295762 1.0839045 2.2830198
H -1.0338511 -0.62486416 -3.2338245
H -1.2139817 0.6849984 -2.1015477
