11

C 0.4206525 -0.4087596 -0.5776811
C -0.5053426 -1.3040384 0.10484831
C 0.9237527 0.6698898 -0.074581236
C 1.3305113 1.9701425 0.08712364
O -0.20368972 -1.8973604 1.1254944
N -1.7309818 -1.4358804 -0.5071886
H 2.1936793 2.1907382 0.70813286
H 0.758734 2.8072073 -0.30916107
H 0.92634386 0.78463775 1.0845948
H -2.302835 -2.192092 -0.16367535
H -1.8108244 -1.1844847 -1.4779066
