12

O 0.74718004 1.728583 -1.6351227
C 0.20532152 0.00922944 -0.02075077
C -0.817122 -1.3191606 1.2041707
N 0.39447698 -1.1156483 0.66337436
N -1.7244607 -0.27117786 0.8696926
C 1.2672569 0.7265908 -0.80598634
N -1.0438454 0.50669146 0.03975262
H -0.026554542 2.1146762 -1.2008041
H -1.0248185 -2.0062072 2.0196261
H -1.769835 -1.4981747 0.38891283
H 2.001474 1.1225262 -0.08729455
H 1.7909268 0.002071304 -1.435571
