9

O -0.30449128 1.3505241 -0.29686472
C 0.59278655 0.88965887 0.99322414
C -0.71397436 0.20842227 -0.9933595
O 1.2295084 -1.3912944 1.304907
C 0.57077694 -0.42493796 0.62582916
N -0.1691586 -0.8253348 -0.5033139
H 1.0275575 -2.2313123 0.8724975
H -0.8997779 2.094897 -0.1321425
H -1.3332273 0.3293773 -1.8707769
