10

N 0.82506955 -1.5081612 -0.45402205
C -0.20289241 -0.64880955 -0.36168307
O -1.3338289 -0.8193278 -0.77944213
C 0.20241141 0.6482081 0.3636336
O 1.3338189 0.81666213 0.7802285
N -0.82529515 1.5073427 0.4573732
H 1.713065 -1.2319665 -0.06459174
H 0.7037063 -2.39798 -0.90738
H -0.70393324 2.3976882 0.90759486
H -1.7121215 1.2363439 0.058288805
