10

N -1.613809 0.5480144 0.31432256
C -0.3452448 0.7921121 -0.071356505
O 0.06413383 -1.6215274 0.26346752
C 0.50713706 -0.45184398 -0.05720991
O 0.11936627 1.8660227 -0.40191197
N 1.7648531 -0.54091275 -0.33684337
H 1.3445289 -1.7716895 -0.0038984097
H -1.8909446 -0.38669112 0.5697057
H 2.3218377 0.25673452 -0.618771
H -2.271859 1.3097811 0.34249544
