11

O -2.70021021 -1.78995083 -0.62313011
C 1.12961350 0.90430664 -0.25051799
C -0.65061404 -0.50020453 -0.08738878
C -0.33974999 0.12579330 1.20436949
N 0.67413670 0.89159501 1.14636636
C -1.74766808 -1.15058421 -0.41120913
N 0.40884225 -0.14732940 -0.99221086
H 2.21107883 0.75154004 -0.30347038
H 0.90484965 1.89495687 -0.66267138
H -0.90772624 -0.03464727 2.11798221
H 1.01744745 -0.94547576 -1.13811965
