11

O 0.46000287 -1.0921342 -2.3358247
C 0.80962855 -0.14698678 -1.6610843
C 0.26939502 0.106791005 -0.33646286
C 0.47235307 1.0719427 0.6242486
N -0.31342438 0.83761114 1.7152512
C -0.9872802 -0.2553727 1.4256499
N -0.6761167 -0.7371066 0.20346595
H 1.563298 0.5814473 -2.0174992
H 1.1443914 1.9193876 0.58309084
H -1.7105 -0.7334099 2.0729682
H -1.0317478 -1.5521697 -0.27380386
