11

O 1.0197109 -2.1681051 -1.1252791
C 0.5342486 -1.2280182 -0.6271994
C -0.081425376 0.91771585 -1.0458419
C -0.7104747 -0.3507934 -0.7211273
N -1.0536404 -0.16211148 0.6269197
C 0.008111914 0.64180535 1.0531682
N 0.3091923 1.533622 0.03723049
H 0.94350266 -0.4171602 0.5861165
H -1.2846872 -0.9829135 1.1664338
H 0.18957634 1.2608225 -2.0375805
H 0.12588489 0.9551355 2.0871596
