10

O -0.23860301 -0.17532513 2.0263495
C -0.10695892 -0.03620291 0.6904896
C 0.70184773 -0.61477107 -0.26074913
C 0.29392135 0.010969013 -1.4640765
N -0.6730879 0.89039254 -1.2753142
N -0.9038812 0.8458575 0.055219233
H 0.39466226 -0.8337884 2.3338883
H 1.4638914 -1.3662469 -0.11185374
H 0.67806375 -0.1562249 -2.4609003
H -1.6098557 1.4353403 0.46694693
