10

O -0.047200684 0.3228088 -1.9070177
C 0.9328249 0.6066879 0.3285048
C -1.0539613 -0.69959855 0.11167438
C 0.1827489 -0.25963932 -0.6516512
N 0.40053743 0.5765525 1.4881728
N -0.7814494 -0.22081955 1.2931066
H -0.92664087 0.035515346 -2.182337
H 0.7939132 -1.1819607 -0.745661
H 1.8552263 1.1454371 0.14677674
H -1.3559984 -0.3249837 2.1184313
