11

N 1.3680485 -0.6642001 2.5950878
C 0.66175246 -0.6722903 1.6816013
C -0.24313898 -0.65310526 0.5161362
C -0.5333965 0.74288666 -0.07584302
C 0.24190418 0.21835156 -1.2923551
O 0.40499014 -1.0784062 -0.6830364
H -1.1209213 -1.2643142 0.7485981
H -1.5932505 0.9327382 -0.2449503
H -0.080648355 1.5799347 0.45641586
H -0.31509563 0.1587456 -2.230902
H 1.2097559 0.69965976 -1.4707524
