11

N -0.37325758 2.078664 -0.27949238
C 0.66818887 0.019442584 -1.1992196
C 0.29733294 1.3340904 0.38602716
C 0.417345 -0.12377455 0.2268542
C -0.6604137 -0.9451743 0.879949
O 1.4897985 -0.83336645 -0.32174212
H -1.6301683 -0.45611933 0.76244086
H -0.4776684 1.1519465 -1.2902148
H -0.6781109 -1.9333857 0.41305298
H 1.3959752 0.7679412 -1.5244733
H -0.4490216 -1.060264 1.946818
