11

N 0.38440558 0.35094503 2.2919781
C 0.2766602 0.17555054 1.0994242
C -1.2552123 0.1550815 -0.92074573
C 1.2855805 -0.66104805 -0.8515741
C 0.091281936 0.14354779 -0.26550728
O 1.2267166 0.7541075 -0.86228234
H -1.8815947 -0.6457493 -0.518536
H 2.0541263 -0.9392463 -0.09108246
H 0.67473805 -0.4271802 2.8818781
H -1.7571529 1.1159472 -0.7771161
H -1.0995495 -0.021955833 -1.9864364
