10

N -0.19570208 0.4404985 -0.17907155
C 0.25178337 0.42841983 -1.3682802
O 0.8305443 -1.63136 0.22206488
N -0.28379497 -0.54768854 1.8806177
C 0.17962505 -0.682348 0.6082546
O -0.011347532 1.4101738 -2.2234256
H -0.5615297 2.0552986 -1.7521468
H 0.8747748 -0.352074 -1.8019701
H -0.16813186 -1.322944 2.510903
H -0.91622156 0.20202394 2.1030536
