10

N 1.4784895 0.4953417 0.9245444
C 0.22482432 0.6230762 0.3772408
O -0.44184402 1.6335264 0.44254383
N -0.23277697 -0.5468816 -0.2330683
C -1.4596121 -0.63811284 -0.8706246
O -1.8553559 -1.6694257 -1.3556626
H 1.8789178 1.3702526 1.228427
H 2.1273954 -0.17057574 0.53447825
H 0.28564197 -1.4121766 -0.16758396
H -2.0056798 0.31497562 -0.8802949
