11

C -0.07553274 -1.0540699 0.42721507
C 0.08857212 0.15382333 -0.4792516
O 0.37704837 -0.019184612 -1.6438435
C -0.09758855 1.521932 0.12736407
O 0.20011327 -2.2424428 -0.2407822
H 0.58613706 -0.92323333 1.298685
H -0.8979684 1.5279305 0.8753265
H 0.8317114 1.8078235 0.634668
H -0.30310848 2.2539196 -0.65509194
H 0.39954126 -1.9881405 -1.1570244
H -1.1089253 -1.0383579 0.81273496
