11

C -0.41176072 0.9165972 -1.1529242
C -0.07313387 -0.33304328 -0.37918752
O -0.05502759 -1.4366634 -0.88215834
C 0.27856687 -0.18566294 1.0928755
O 0.6542647 -1.4026381 1.6539431
H 0.51604867 1.3384377 -1.5586522
H -0.8697323 1.6801745 -0.5151333
H -1.0702785 0.6782153 -1.9902624
H -0.60111815 0.24063022 1.6043048
H 1.0844316 0.55975676 1.1847558
H 0.54773957 -2.0558043 0.94243896
