11

O -0.45687452 1.7562335 -1.5349317
C -0.011426761 -0.02809403 -0.039684
C -1.0163277 -0.8931158 0.6591456
C 0.9056715 0.7989199 0.82683104
O 1.5465075 0.30483142 1.7187063
C -0.4160213 0.569441 -1.3579148
O 0.46168274 -1.3780888 -0.16951682
H 0.9146162 1.8832686 0.60650295
H -0.5338257 -1.8415381 -0.28699973
H -0.6961632 -0.9976157 1.7042652
H -0.69783884 -0.17424199 -2.1264038
