11

O 1.19853 0.635727 -1.9667178
C 0.1645086 0.6846563 -1.3561339
C 0.04184104 0.1651013 0.053309593
C 0.867422 -1.0031961 0.44036496
O 1.200824 0.28785715 0.8683814
C -1.2521666 0.3641562 0.7762453
O -2.287153 0.601648 0.20641664
H -0.7684392 1.0998132 -1.7798237
H 0.49643862 -1.6812602 1.2109414
H 1.5122597 -1.4219255 -0.32995903
H -1.1740658 0.2674226 1.8769749
