11

O 1.1518836 -1.7380422 -1.3354163
C -0.7183948 0.34867257 0.5926334
N 1.3646942 0.3468549 -0.35308936
C 0.6520935 -0.7586457 -0.5732686
O -1.8263924 0.6707763 1.2715255
C 0.39903843 1.1658373 0.41782475
N -0.5650192 -0.83112085 -0.01811236
H 0.48644415 -2.4370089 -1.3660899
H 0.74003685 2.0202193 0.985082
H -2.4250503 -0.08479136 1.2015866
H 0.7406657 1.2972482 -0.822676
