9

O 1.0517306 1.1725589 -0.11659229
C -1.036531 0.119231254 0.43774173
C 0.19252655 0.14605574 -0.47553125
O -1.107584 0.8710926 1.3759875
C 0.8201383 -1.1974007 -0.38257876
N 1.285148 -2.2483544 -0.28469312
H -1.8214338 -0.6175409 0.19656686
H 0.7596816 1.4731479 0.76267916
H -0.14367646 0.28120968 -1.51358
