11

C -0.93519896 1.3029605 0.29612604
N -0.08872409 0.15817155 0.030968897
C -0.38153931 -1.1526598 0.0082446765
N 0.69424176 -1.8581711 -0.2789431
C 1.640163 -0.8952604 -0.42471927
N 1.2189178 0.34026948 -0.24703766
H -0.5756577 1.8302146 1.1826428
H -0.91566 1.9778423 -0.5627934
H -1.9560434 0.9534922 0.46514517
H -1.3711631 -1.5429206 0.20187475
H 2.670664 -1.1139388 -0.671509
