10

O -1.68424750 -0.78949017 -0.20610900
C 0.62502404 -1.17042199 0.51034075
C 0.50489924 1.35823934 -0.33928312
N 0.08915245 0.73028639 0.87773791
N 0.01518272 0.57925334 -1.23170619
C -0.42769785 -0.30992393 -0.13467383
N 1.11633680 -0.26575724 1.27263711
H 0.90221140 -2.21642033 0.44410345
H 1.08295721 2.26984390 -0.45691885
H -2.22381835 -0.18560904 -0.73612833
