11

O 1.7925942 0.9800753 -0.4296835
C 0.9822275 0.2052777 0.07957828
C -0.764342 -0.48407444 0.86476654
N 0.52880704 -0.0065394538 1.3995783
C -0.06281564 -0.5671357 -0.506287
O -0.55830795 0.4687141 -1.6438053
H 0.24167581 1.0716304 -1.6596758
H 1.0542817 -0.4876713 2.1142676
H -1.137442 -1.4301167 1.260259
H -0.55348045 -0.048625413 -2.46211
H -1.5231984 0.29846564 0.98311126
