11

O -1.5031326 -1.0430645 0.3785271
C -0.16540119 -0.77164745 0.06774384
C 0.029538661 0.23429082 -1.0925437
N 0.7609894 1.0786735 -0.14720388
C 0.5035447 0.30223924 0.94784385
O 0.6811534 0.44081312 2.13123
H -1.5643331 -1.1256603 1.3399589
H 0.4362088 -1.6842736 -0.037321273
H 0.6294369 -0.11247873 -1.9376037
H -0.9179099 0.65934217 -1.4314214
H 1.1099048 2.0217657 -0.21920992
