10

O -0.9536264 0.29300714 1.5765601
C -0.6693354 -0.015441053 0.32207003
N -0.8209673 0.90378666 -0.6827084
C 0.64847255 0.6592761 -0.58854425
C 0.8751936 -0.7386178 -0.3719949
N -0.25929284 -1.3410163 -0.010925356
H -1.1985625 0.4829159 -1.5303895
H 1.8416419 -1.2449669 -0.3934047
H -0.7661169 -0.50241286 2.1003048
H 1.3025934 1.5034689 -0.42096788
