9

N 0.71116865 -1.3275951 0.25524902
C -0.52125305 -0.86632156 -0.05804852
O -1.5228631 -1.533093 -0.20930727
C -1.2322438 1.7035738 -0.3911195
C 0.20006572 2.806611 -0.06755142
C -0.6014859 0.58796966 -0.22571546
N 0.6484877 1.6722845 -0.05901304
H 1.506673 -0.7219194 0.3555293
H 0.8114509 -2.3215103 0.3999769
