9

N -0.257144 1.2180079 1.5172958
C -0.36757568 1.1594476 0.16793028
O -0.74174935 2.067462 -0.53980315
C 0.015286966 -0.13900356 -0.412641
C 0.30249587 -1.1612439 -0.9758159
C 0.6313063 -2.339108 -1.6287237
N 0.9042881 -3.3231714 -2.1716692
H 0.037552197 0.4355972 2.0762436
H -0.5244605 2.0820124 1.9671832
