9

N 0.77258937 -1.75728410 1.86350779
C 0.54502808 -1.38877963 0.79144531
O -0.49497588 0.92966758 -1.86428165
C -0.24995762 0.52902289 -0.74968446
C 0.25307873 -0.88635683 -0.51721804
C 0.44594218 -1.73338415 -1.51384923
N -0.38327968 1.24217904 0.38557904
H -0.17173967 0.87181115 1.30031187
H -0.71668557 2.19312333 0.30418913
