9

N -0.26085198 1.2196643 1.5193889
C -0.36951622 1.1588943 0.16748339
O -0.743134 2.068413 -0.541487
C 0.012449188 -0.14035003 -0.41177523
C 0.3011273 -1.1645526 -0.977185
C 0.63160414 -2.3381999 -1.628789
N 0.9093287 -3.323135 -2.1710608
H 0.036435705 0.4332996 2.0727098
H -0.5174429 2.0859656 1.9707147
