10

N 0.803189 -0.15965837 1.6824706
C -0.38031924 0.13878231 1.3632237
O -0.7948489 0.20569728 0.08621037
C 0.21505922 -0.08542972 -0.87132657
C -0.38430667 0.04035156 -2.2031164
N -0.81271774 0.12795801 -3.2721746
H 0.9181057 -0.15677062 2.6927326
H -1.2182578 0.37878937 2.0242054
H 0.6005888 -1.0998056 -0.72949165
H 1.0535076 0.6100858 -0.7727336
