10

N 1.1098576 -1.1481488 1.0541852
C 1.3681448 -0.7452154 -0.114356145
O 0.65643215 0.21973139 -0.7298127
C -1.56152 0.95570755 -0.5685966
C -0.3443248 0.79444295 0.028285667
N -2.426958 1.1966175 -1.4319704
H 2.1546745 -1.0872643 -0.79122424
H 1.7601246 -1.8714126 1.340101
H -0.24878536 0.7788386 1.1040255
H -2.4676452 0.9067031 0.1093625
