11

C -1.3072528 -0.78766006 0.6810535
N -0.12802894 -0.052136607 0.2672239
C 0.39711696 0.10010027 -0.970073
C 1.4891006 0.9046444 -0.76848114
N 1.5695604 1.1940606 0.5555794
N 0.5931536 0.61590827 1.1738422
H -1.3684616 -0.7056318 1.7656251
H -2.2035828 -0.35638067 0.22758344
H -1.2185128 -1.8395629 0.396676
H -0.029531864 -0.3582329 -1.8489945
H 2.2064395 1.2848914 -1.4800351
