10

O -0.016473511 -1.376241 -0.9579424
C -0.4054268 -0.38684863 -0.051378798
C 0.6850982 0.008415507 0.94503295
O 0.6334565 1.385505 0.47277233
C -0.26090562 1.0718478 -0.50460076
O -0.6916887 1.7734448 -1.364758
H -0.6540142 -1.3932421 -1.682151
H -1.3828433 -0.5850385 0.41098046
H 1.6533053 -0.4457089 0.7265607
H 0.43949223 -0.052134037 2.0054846
