10

O -1.67612560 -1.23025785 -0.04404679
C -0.69125607 -0.32769537 0.07746543
C 0.73178678 -0.24418297 0.38538195
O -0.30323710 0.13763877 1.33958145
C 0.75352023 0.88024615 -0.63585343
O -0.67873467 0.69541572 -0.87225745
H 1.31875586 0.65427909 -1.54285263
H -1.92374160 -1.52129504 0.84309439
H 1.50419319 -0.92824316 0.71053453
H 0.96483908 1.88409460 -0.26104737
