11

C 0.50871766 -0.93647903 -0.31144717
C 0.4828091 0.39563134 0.265176
C -0.46454173 -1.2719722 -1.388226
N 1.4052261 0.27971986 -0.56937534
C -0.17176564 1.350254 1.1757233
O -1.0393612 -0.43159652 -2.0393956
H -1.2009536 1.501373 0.8376449
H -0.20286652 0.93434256 2.1867106
H 0.35646662 2.3052487 1.1792228
H 0.9691683 -1.7721745 0.2132241
H -0.64289904 -2.354347 -1.5492575
