10

C 0.58475924 -1.2618494 0.44691998
C 0.1622685 0.718846 -1.0986449
C 1.0278882 -2.3440392 0.71407646
C 0.059681796 0.02110886 0.10187896
N -0.53887016 1.8505362 -1.011305
N -0.6316173 0.78829765 0.96215683
N -0.98647755 1.9453611 0.22286484
H 0.69876635 0.44857645 -1.9973432
H -1.7998883 1.1371711 0.6968196
H 1.423489 -3.3040087 0.9625763
