10

C -0.45945534 1.313492 -2.3874598
C 0.7321426 -0.99527395 0.19150122
C -0.30290014 0.7824178 -1.3236241
C -0.0819497 0.119466215 -0.07641986
N -0.65562606 0.5079717 1.0651504
N 0.6484249 -1.2728932 1.4863707
N -0.1816418 -0.3532343 1.937511
H 1.3477019 -1.5805011 -0.47393525
H -0.4394777 -0.31693506 2.9111772
H -0.6072186 1.79549 -3.3302715
