11

O 0.46218875 -1.0945204 -2.33296
C 0.8090199 -0.14810199 -1.6615556
C 0.26830485 0.1081122 -0.33540928
C 0.47287214 1.0750623 0.62349766
N -0.31064337 0.8385638 1.7129413
C -0.98527366 -0.2567655 1.4238263
N -0.6772703 -0.7393006 0.20443703
H 1.5618727 0.58240986 -2.017313
H 1.141199 1.9235504 0.5823698
H -1.7092338 -0.7356443 2.0722547
H -1.0330364 -1.553366 -0.2720891
