11

O 1.0654938 1.4589823 2.1463478
C 0.21567808 -1.0621029 -0.3433518
C 0.18461846 0.23449391 0.31634796
C 1.0881044 0.4409624 1.4971862
N -0.67660457 -1.1626992 -1.273557
C -1.6755304 -0.6276562 -1.7317697
N -0.61085624 1.1485418 -0.09647123
H 1.7758044 -0.39219162 1.7505863
H 0.8832877 -1.8776584 -0.101426326
H -1.708742 -0.116568975 -2.6952362
H -0.5412532 1.9558966 0.531344
