11

O 1.3711264 0.29692495 -2.5838885
C 0.28564295 -0.21828091 0.83010715
C 0.11607383 0.12597252 -0.5763057
C -1.6674733 0.12907948 2.3162494
N -0.9954793 0.4921627 -1.0824535
C 1.3700497 0.026594212 -1.4079988
N -0.72380155 -0.12928855 1.6254395
H -0.83548534 0.6922045 -2.0780053
H 1.2325319 -0.5494081 1.235557
H -2.4473617 -0.56709576 2.608507
H 2.2941763 -0.29886496 -0.88720816
