12

C 0.64240885 0.5103577 -0.8871929
C 0.09505119 -0.8808146 0.7758425
N 1.2718325 -0.32068616 0.135339
N -0.84693265 0.4935253 0.8888413
C -0.8032754 0.4035625 -0.4467509
O -0.00025345923 -1.7070997 1.6503289
H -1.6521107 0.56367075 -1.1121558
H 1.7781295 0.22502242 0.8290845
H 0.970608 1.5543512 -0.84185463
H -1.7444631 0.22418101 1.28698
H -0.51266193 -1.1842086 -0.38432348
H 0.8016674 0.11813827 -1.8941387
