12

C 0.4689995 0.6044492 -0.8349761
C -1.144614 0.039360926 0.7501796
N -0.9410351 0.6446933 -0.48408675
N 0.03642791 -0.6134396 1.0725145
C 0.92041904 -0.6555105 -0.08038016
O -2.1565456 0.07479966 1.4136785
H -1.4882443 1.4730759 -0.6614535
H -0.047551025 -1.4066868 1.6900538
H 0.6201899 0.5174357 -1.9137201
H 1.9738779 -0.6123692 0.20586345
H 0.75051636 -1.5524858 -0.6903259
H 1.0075597 1.486677 -0.46734732
