12

C 1.0739204 0.19300765 0.78249604
C -0.31610218 0.59328884 0.34949645
N -1.0168682 1.5504458 0.80731255
N -0.9060722 -0.17310628 -0.6665208
C -0.3943819 -1.2491467 -1.3416299
O -1.0002607 -1.8414651 -2.2060912
H 1.4160814 0.86128575 1.5769806
H 1.7861375 0.2565394 -0.047836933
H 1.0877746 -0.8320893 1.1681308
H -0.5155146 2.048761 1.5391377
H -1.8388977 0.12063014 -0.9341551
H 0.6241836 -1.5281513 -1.0273204
