12

C 1.09623233 -0.17997377 -0.22183387
C -1.06186955 -0.72172230 0.47540505
N 0.28343268 -1.01380156 0.64791572
N -1.12279010 0.44574783 -0.27598517
C 0.19386802 1.05578312 -0.36089009
O -2.00088058 -1.35940941 0.89624431
H 0.37348611 1.75790263 0.46269320
H 2.06384671 0.06117486 0.22441929
H 0.51267641 -1.98485225 0.79676539
H -1.94204536 1.01636882 -0.13341200
H 0.34466712 1.57373289 -1.31120907
H 1.25937625 -0.65095096 -1.20011295
