9

N 0.61656433 -1.24133016 0.16300269
C 0.60390291 -0.14973039 0.83981597
C -0.25070999 0.88826350 0.17907670
N -0.73901899 0.21455577 -1.01144787
C -0.22021349 -0.95359939 -0.95250347
H -1.08841187 1.20882428 0.80961023
H 1.15452712 -0.03597521 1.76804658
H 0.30991640 1.78992410 -0.09393730
H -0.38655631 -1.72093306 -1.70166351
