9

N -0.0825377 1.0815691 -0.49312836
C 0.62517744 -0.16892192 -0.7118746
C -0.7211871 0.84007055 0.6624242
N -0.4628816 -0.338071 1.2418969
C 0.36145225 -0.9747527 0.39907444
H -1.4108199 1.5616618 1.0832559
H 1.3973732 -0.2241178 -1.4687726
H 0.7363798 -1.9709902 0.5998554
H -0.44295615 0.1935521 -1.3127314
