9

N -0.120956466 -0.84747463 0.45218852
C 0.35857192 0.37672675 0.8592487
C 0.27684423 1.1769137 -0.24668041
N -0.23585013 0.48150802 -1.3127791
C -0.46298957 -0.7263824 -0.861078
H -0.20105621 -1.6770033 1.0159416
H 0.7010267 0.5489044 1.8691355
H 0.55587745 2.217538 -0.3447643
H -0.8714678 -1.5507311 -1.4312125
