12

C 1.0743022 0.19376421 0.78194356
C -0.3166084 0.59193856 0.34910816
N -1.0186372 1.5477854 0.8084461
N -0.90661323 -0.17225151 -0.66628635
C -0.39264435 -1.2488483 -1.342779
O -0.9998623 -1.8402876 -2.2068913
H 1.4166456 0.8631378 1.5753368
H 1.7831222 0.2573738 -0.050639212
H 1.0904137 -0.8318891 1.1665522
H -0.5161519 2.0445633 1.540922
H -1.8411573 0.11932735 -0.9289794
H 0.6271911 -1.5246141 -1.0267335
