11

N 0.51869005 -0.64877194 -0.7517668
C -1.4564328 -0.19063348 0.13750826
C -0.61477494 0.7984032 0.57616115
N 1.980207 0.47139987 0.31257024
C 0.6732164 0.393734 0.08797957
N -0.7534703 -1.1407708 -0.55740285
H 2.4062846 1.3701311 0.50558716
H 1.7839499 -0.6869184 -0.5317525
H -2.5205781 -0.3171117 0.294642
H -1.1619389 -1.6615409 -1.317467
H -0.85515237 1.612079 1.2439406
