11

N 2.2603254 -0.64787173 0.725961
C 1.108857 -0.32059997 0.33921418
O 0.5094521 -0.899655 -0.7288831
C -0.8560122 -0.4966447 -0.75684977
C -0.8351406 0.80486417 0.038052816
O 0.28858304 0.6184311 0.8954193
H 2.5448775 -0.06272026 1.5050558
H -1.4720606 -1.2643791 -0.27561286
H -1.1622674 -0.3729618 -1.7968274
H -0.66443217 1.6786866 -0.599874
H -1.7221819 0.96285075 0.65434396
