10

O -1.590667 -0.9741639 -0.82259077
C -0.2875344 -0.52557665 -0.6888344
N 0.3032181 -0.8840661 0.6063106
C 0.40598795 1.343115 0.16984862
C 0.74529904 0.21349216 1.0798839
N -0.24262615 0.92056936 -0.8459227
H 0.38723943 -0.9381285 -1.4588773
H -1.6406267 -1.8334969 -0.38696325
H 0.64439386 2.3917415 0.321521
H 1.2753158 0.28651395 2.0256243
