10

O -1.9626297 0.9893715 -0.19079208
C -0.80524063 0.34782556 0.042747904
N -0.47753674 -0.30063722 1.1187913
C 0.80060863 -0.7649218 0.8574105
C 1.2164929 -0.38250095 -0.37894642
N 0.15705834 0.3471158 -0.9086279
H -2.492813 0.8669426 0.6098756
H 1.3391242 -1.3504044 1.5890045
H 2.1297727 -0.5448776 -0.9312062
H 0.0951634 0.7920863 -1.8082575
