9

O 0.44364205 1.5072834 1.220458
C 0.060848117 0.50468636 0.42494965
N 0.004160111 -1.4002174 -0.6581858
N -1.1389295 0.45250556 -0.15256095
N -1.2299263 -0.7026972 -0.77459484
C 0.8069921 -0.6126246 0.06661332
H -0.47171912 -0.99547905 -1.7215024
H 1.8249962 -0.87712157 0.30967674
H -0.3000638 2.1236644 1.2851462
