12

N 0.08402445 1.9714894 -0.28561643
C -0.5950814 1.0524865 0.36752084
C 1.1784093 1.5646539 -0.991255
N -1.2349857 -1.2351906 0.9291296
C 0.6820017 -0.7407184 -0.49455163
N 1.4494834 0.22189893 -1.0421377
C -0.3709316 -0.3465645 0.30423203
H -1.4211359 1.4092301 0.9875581
H 1.8809537 0.88571817 -1.9215968
H -0.8561056 -2.1513605 1.1130284
H -1.7412071 -0.85245 1.7114223
H 0.9445747 -1.7791932 -0.677734
