9

O -1.7310108 -0.15185331 -1.1007817
C 0.5433611 -0.62802875 -0.34527734
N 1.2363838 -0.02122245 0.6535614
N -0.62743497 0.978449 0.65436006
N 0.53106415 0.93646854 1.2457721
C -0.6562761 0.041262336 -0.3178419
H 2.1712291 -0.20888206 0.9771173
H -2.4052088 0.4825862 -0.8185474
H 0.9378926 -1.4287794 -0.9483625
