9

O -0.52179272 -1.03902467 1.69686130
C 0.40936661 -0.60837541 -0.52074573
N 0.41978071 0.56268807 -1.20971239
N -0.56635208 1.04993430 0.59674748
N -0.16419074 1.54801762 -0.53631476
C -0.23451120 -0.25857747 0.64153454
H 0.83193583 -1.52684743 -0.89278447
H -0.97617788 -0.48281684 2.34561365
H 0.80194149 0.75500222 -2.12119947
