11

C 1.1310717 0.42904577 -0.5746498
C -0.1761429 -0.022743873 0.03712515
C -0.33860204 -1.4080884 0.54295444
O -0.2551547 0.09391484 1.4753993
C -1.3527956 0.6378886 -0.5446256
N -2.261184 1.1375496 -1.0549278
H -1.4074428 -1.6574266 0.60762787
H 1.1470728 0.17426172 -1.6380577
H 1.2538469 1.5102715 -0.46497527
H 1.9532022 -0.09030993 -0.07728963
H 0.30612874 -0.8043634 1.6914192
