10

C 0.24929567 -1.5554907 0.5360667
C 0.8884597 0.6218953 0.76338047
N -0.6075987 -1.1533167 -0.46600288
C -0.78724396 0.12444054 -0.8374958
N 1.0072576 -0.6347876 1.1758827
C 0.004451622 1.0701238 -0.22998261
H 1.5324048 1.3443146 1.267415
H -1.523923 0.340096 -1.6056883
H -0.05373071 2.1199262 -0.49254093
H -0.7093729 -2.2772012 -0.11103447
