12

N -1.5780393 1.2430362 -0.19641317
C 1.6940956 -1.1503118 0.14224182
C 0.3000024 0.36344588 1.0858471
N 1.0145571 -1.2200229 -1.0014788
C -0.48971647 0.3898502 -0.063383944
N 1.3864402 -0.39647797 1.1961896
C -0.067533545 -0.45435968 -1.0945401
H -1.9946363 1.550719 0.66980195
H 2.585043 -1.7691809 0.22280116
H -2.2695584 0.96806264 -0.877566
H 0.044504024 0.9826052 1.9458649
H -0.6251585 -0.5073655 -2.0293646
