12

N -0.4538344 -0.4547772 1.9154692
C -0.1401725 -0.13585362 0.6007578
C -0.9275514 0.72245896 -0.17458174
N -0.5974164 1.080136 -1.4111055
C 0.5374578 0.58122903 -1.8949894
N 1.3665452 -0.24536167 -1.2573384
C 1.0208356 -0.59727865 -0.024158405
H -1.4304737 -0.3805357 2.1605191
H -0.03345045 -1.3024192 2.2669275
H -1.8546591 1.134103 0.22455168
H 0.81697506 0.8739151 -2.9047964
H 1.6957445 -1.275616 0.49874443
