10

O 0.16786227 0.15126762 1.07010347
C 1.29061277 0.64510918 -0.98600762
N 2.05953260 0.31945882 -1.78064757
C 0.33117473 1.10368658 0.03437228
C -0.58444171 -0.92797914 0.75906688
N -1.09871215 -1.08415752 -0.38062781
H -0.62149368 1.32045109 -0.45231749
H 0.72084530 2.00114281 0.52186972
H -1.61563140 -1.95626659 -0.42405620
H -0.64974825 -1.57271292 1.63824404
