10

O -1.1936431 -0.85876346 -0.118438154
C 0.2262986 1.0506124 -1.3469063
N 0.29634976 0.00092883455 1.2008939
C -0.8912689 -0.47948903 1.041098
C 0.6151462 -0.24519123 -0.86643976
N -0.05084717 2.091833 -1.7705334
H 0.61287194 0.3509848 2.098565
H -1.6205806 -0.56432736 1.8550783
H 0.35363185 -1.0551586 -1.5380398
H 1.6520414 -0.29142946 -0.555278
