10

O 1.665962 -0.1320021 -1.4443989
C 1.1601316 0.7876308 -0.84352857
N 0.2752508 0.647926 0.18697943
C -0.21551147 -0.6572373 0.5748081
C -1.6491518 -0.8156196 0.28148052
N -2.7788215 -0.9187528 0.07259872
H 1.3815774 1.8484592 -1.0575581
H -0.14653406 1.472479 0.5850882
H 0.35970724 -1.3904184 0.003570009
H -0.05260973 -0.84246486 1.6409603
