10

O -0.94306225 -0.022075888 0.55346847
C 0.14327148 0.8660984 0.7472142
N -0.07022378 -0.50647885 -1.505321
C 1.3944639 0.14575498 1.0432085
C -0.9638071 -0.67097765 -0.6322696
N 2.377934 -0.39544514 1.305177
H -0.25263816 -1.0856119 -2.3183374
H -1.8518713 -1.3058307 -0.6669492
H 0.2990429 1.4924153 -0.13306603
H -0.13310957 1.4821515 1.606875
