10

O -1.6827053 -0.59671617 -1.5318164
C -0.80479306 -0.26589885 -0.7804637
C -0.376302 -0.6187372 0.6604185
C 0.7705353 0.4005885 0.4445871
N 0.24018206 0.60876644 -0.89829564
H -1.1083041 -0.35215327 1.4247196
H -0.065126926 -1.657011 0.78806794
H 0.7272009 1.287268 1.0830716
H 1.7784691 -0.022195127 0.46635386
H 0.5208438 1.2160884 -1.656643
