10

O -0.48839882 -1.26204964 0.20031303
C -0.90841745 -0.64891839 -0.92712806
C 0.40028261 -0.32143059 0.84624359
C 0.37006503 0.90810662 -0.08546385
N -0.51286856 0.52221027 -1.19633146
H 0.01235082 -0.12705381 1.84889424
H -1.58375198 -1.24381143 -1.53546310
H -0.03320701 1.80077992 0.40364510
H 1.38424623 -0.79186697 0.92196442
H 1.35969891 1.16403373 -0.47667405
