9

N 0.4489614 -0.073588595 -0.1333053
C -0.8198734 0.4033804 -0.44724977
N -1.0507118 0.8955377 -1.5900811
C 0.8591961 -0.6168511 0.9843154
O 2.0901527 -0.9185817 0.85564303
H 1.7596438 -0.38660794 -0.28594473
H -2.0239413 1.191753 -1.6421742
H 0.28860188 -0.80355215 1.8936746
H -1.5520294 0.30851045 0.36512223
