12

N -2.1298988 0.56158435 -0.075645834
C -0.7855488 0.19591276 -0.041359387
N 0.15246852 0.8179614 0.6365381
C 1.3094251 0.1595716 0.30572525
O 2.495121 0.5440511 0.8283296
C 1.0850209 -0.8689854 -0.55584884
N -0.2999605 -0.8336004 -0.76771283
H -2.2934024 1.3144109 0.58107245
H -2.758656 -0.20740095 0.116946355
H 2.304764 1.2782642 1.4258032
H 1.7323182 -1.6104435 -0.9921454
H -0.8116516 -1.3513259 -1.4617027
