12

N -0.22088558 0.91750460 0.56165553
C -1.53307817 0.49300268 0.39897408
N 2.03246587 0.35604666 -0.08707253
C 0.66959852 0.04148003 -0.05565888
O -2.55146884 1.05260404 0.75788947
C -0.05575497 -0.97638365 -0.56021132
N -1.40052630 -0.70571728 -0.26786511
H 0.00453951 1.85011407 0.86420332
H -2.19953342 -1.20113389 -0.61984584
H 2.47212206 0.27467618 0.82284042
H 2.52621667 -0.22615765 -0.74872497
H 0.25630426 -1.87603563 -1.06618421
