10

O -0.9589811 -0.07857128 -0.8915793
C -0.9201367 -0.17719601 0.5511361
C 0.40795174 0.14022286 -1.115724
O 1.0810155 -0.8482969 -0.34050953
C 0.6001414 0.043162066 0.6727636
O 0.7772145 1.1662837 -0.20357989
H -1.2531579 -1.1668468 0.872229
H 1.1317211 0.058778252 1.6225199
H -1.5209277 0.6158046 1.0024745
H 0.6551593 0.24665953 -2.1697307
