11

N -2.006196 -0.09137425 -0.9419558
C 0.45183128 -0.05972635 -0.9000498
C -0.9409837 -0.029279359 -0.2679149
N -0.8068461 0.071684994 1.1371508
C 0.46381864 0.15435068 1.3551362
N 1.2868156 0.19120076 0.2667687
H 0.56075734 0.71568835 -1.6630743
H -2.8068333 -0.048672076 -0.3144445
H 0.65699553 -1.0393727 -1.346114
H 2.2522585 -0.08944006 0.32234496
H 0.8883821 0.22493985 2.3521528
