11

N -0.9793362 -1.7074229 0.5959104
C -0.34869686 -0.53823894 0.15386821
C 0.9663581 -0.16134441 0.2679438
N 1.0417887 1.0516973 -0.4017709
C -0.19428328 1.3241518 -0.87609375
N -1.0609583 0.39183888 -0.5560715
H -1.9829851 -1.6036296 0.51898587
H -0.72743773 -1.9722764 1.5378505
H 1.8310765 -0.61850435 0.7227204
H 1.8659016 1.6167992 -0.51599497
H -0.41142735 2.2169294 -1.447348
