10

O -1.4379598 -0.41532743 0.96304023
C 0.04498229 -0.25491855 -0.82127374
C -0.29189596 -0.8497447 0.56307137
C 0.82684815 0.8173031 -0.29554644
N -0.43646747 1.131704 -0.5707592
H 0.6524712 -0.13681898 1.0640422
H -1.1812693 0.91317266 0.23051032
H 1.7651429 1.3263143 -0.13706093
H 0.043645393 -1.8608559 0.82435316
H 0.014502614 -0.6708281 -1.820377
