10

O 1.8288873 -0.15760191 0.7813072
C 1.1357461 -0.80778235 0.03434049
C -0.11752967 -0.26880047 -0.5614619
C -1.0604621 0.38567814 0.39268154
N -0.2924343 1.1793512 -0.5392329
H 1.4003466 -1.8466867 -0.24699315
H -0.5059473 -0.7860834 -1.4349436
H -2.1267142 0.32716498 0.19154336
H -0.77278274 0.39197722 1.4428177
H 0.5108906 1.5827832 -0.060058873
