11

C 0.11643875 -0.6762761 -1.5995185
N -0.041728843 1.1245619 -0.32086772
C -0.09693699 -0.026053533 1.8121743
C 0.06909943 0.72175515 -1.5838081
N 0.03437045 -1.1138605 -0.3460048
N -0.06337948 -0.0048570274 0.3644479
H -0.62504715 0.86425346 2.1535494
H 0.20064962 -1.3659106 -2.4269235
H -0.61873007 -0.92809165 2.1301394
H 0.10462105 1.4329871 -2.3963869
H 0.92064327 -0.028508268 2.2131984
