11

C -0.90960336 -0.23421668 -0.97506404
N 1.047804 0.43744743 -0.27928826
C 0.041375674 -1.231707 -1.1485693
C 0.23425706 0.8235988 1.3680996
N 1.2222791 -0.8087705 -0.67555195
N -0.26563865 0.8280024 -0.44715622
H -1.9643093 -0.20977566 -1.2069341
H -0.059486046 -2.2070265 -1.6073871
H 0.68429285 1.7987772 1.5069686
H -0.820663 0.7942311 1.6368208
H 0.7896917 0.00943937 1.8280617
