11

C -1.3072649 -0.7879943 0.6807524
N -0.12781271 -0.05118014 0.26715273
C 0.39734632 0.09892257 -0.97141
C 1.4890268 0.9036148 -0.7693952
N 1.5695293 1.1956922 0.5540197
N 0.59225696 0.61829627 1.1740086
H -1.367562 -0.70789456 1.7666563
H -2.2041762 -0.35478565 0.2307089
H -1.2186044 -1.837524 0.39521626
H -0.031933993 -0.35975382 -1.8488703
H 2.2091951 1.2826065 -1.4788396
