12

C -0.7154089 1.3306688 0.09713116
N 0.20566373 -0.8658913 -0.3508662
C 0.5649655 -2.0017786 0.09858473
N 0.7217604 1.4993762 0.029985929
C 0.1906041 0.24017248 0.5507655
O -1.4604921 1.1441317 -1.0473591
H 0.40767178 0.03964131 1.602673
H -1.2308813 1.9672371 0.80982625
H -1.1770453 0.29908797 -1.4258265
H 0.56536907 -2.8575435 -0.57476205
H 0.8786169 -2.1655664 1.1355335
H 1.0491762 1.3704643 -0.9256862
