12

C 0.94027174 -0.3612475 0.08934911
N 1.1982671 -0.609957 -1.2990254
C -0.49648497 0.98237294 1.2139273
N 0.6106176 0.88169366 0.4564096
C -0.22651556 -0.86528516 -1.0156257
O -1.178117 -0.022921463 -1.0762935
H 1.0483276 -1.1838076 0.8050868
H -0.84567887 0.15173067 1.8375118
H -1.159561 0.68524206 0.08199154
H -0.73761564 1.9807515 1.5808958
H 1.2884933 0.29292175 -1.7662796
H -0.44200435 -1.9314939 -0.90794784
