12

C -0.45045434 -1.28122678 -1.57847124
N -0.52445124 -0.33976948 -0.72434802
C 0.61978954 -0.07569167 0.08652777
N 0.95261125 1.33435778 0.28633432
C 0.27002140 0.62779420 1.35088364
O -1.05679311 0.87703647 1.62881273
H -1.55864499 0.59788483 0.84913483
H 0.45184339 -1.88357271 -1.73178326
H -1.32179358 -1.50394034 -2.19238997
H 0.29736793 1.92267984 -0.22519470
H 0.84606360 0.47431018 2.25834347
H 1.47444011 -0.74986209 -0.00785001
