12

N 0.8259477 -1.8287168 1.1513332
C 0.3888552 -0.80305165 0.3685068
N -0.82271373 -0.4890126 0.16559602
C 1.0642024 1.0629723 -0.46086517
C -1.141161 0.71322006 -0.6295042
C -0.033658598 1.7839537 -0.5152117
N 1.4694349 -0.09764014 -0.35281637
H -0.18179698 2.7935574 -0.16593154
H 1.7340192 -2.1944516 0.909527
H -1.3852412 0.4106173 -1.655035
H 0.12478459 -2.513726 1.3895048
H -2.0426726 1.162278 -0.20510383
