12

C -1.1674845 -1.5659394 -0.7117105
C -0.20894332 -0.6594053 -0.49837315
O 0.9431405 -0.5728461 -1.2130251
N -0.27665222 0.3177073 0.4753614
C 0.68549514 1.2661072 0.7620407
N 0.4763835 2.1064742 1.6905651
H 0.9590353 -1.3005978 -1.8479295
H 1.268855 2.7335799 1.7818099
H 1.5714865 1.1932828 0.12827069
H -1.1139934 0.36311734 1.0356841
H -1.0691473 -2.308769 -1.4942555
H -2.068175 -1.5727113 -0.10843814
