12

C 0.5576428 -0.6469071 -1.8483645
C -0.08072071 -0.7401783 -0.47941574
O -0.6039339 -1.7446915 -0.04901237
N 0.008767387 0.42123163 0.26810545
C -0.47397035 0.53922653 1.5638851
N -0.3466588 1.6410977 2.176979
H 0.1354111 -1.4249918 -2.4843707
H 0.40307975 0.33333832 -2.3113925
H 1.6367583 -0.8193216 -1.7582763
H 0.44866937 1.2447096 -0.12004405
H -0.9366333 -0.3764827 1.9342197
H -0.74841183 1.5729694 3.1076863
