11

O 0.24300171 0.030513912 -1.416869
C -0.6870393 -0.7984801 -0.71425587
C 0.35585925 0.5456533 0.8501123
N -0.88527554 -0.1421975 0.5614678
C 0.91400295 0.8104536 -0.54062045
O 1.7981589 1.5494057 -0.86489403
H 1.0987182 -0.046592627 1.4065083
H -1.1762176 -0.7976081 1.2779949
H -0.24860433 -1.8060421 -0.64238423
H -1.6129483 -0.83647954 -1.2932773
H 0.20034407 1.4913735 1.3762178
