11

O 0.6484253 -0.52568954 2.1398203
C -0.117126435 0.4175288 -1.1539302
C 0.26182902 -0.26620838 1.0387236
N -0.12251088 -1.2356492 0.024992524
C 0.1710692 1.0244393 0.22585787
O -1.1055858 -0.55954856 -0.8076914
H 1.0889232 1.6071175 0.33177096
H -0.37356606 -2.1832268 0.28267896
H 0.70209724 -0.9761503 -0.75900537
H -0.47667894 1.0905285 -1.9274929
H -0.67687577 1.6068586 0.60427564
