11

O 1.367266 1.2009506 -0.42038223
C 0.6948227 0.2160609 0.31098276
C -0.79363585 0.5273206 0.58473176
N -1.1151989 -0.7093151 -0.12829404
C 0.16680087 -0.9725959 -0.5243746
O 0.6702985 -1.7719185 -1.274611
H 1.9743814 0.7477318 -1.0217143
H 1.25028 -0.10075071 1.2036138
H -1.0977516 0.5288689 1.6329727
H -1.124894 1.4364555 0.07669159
H -1.9923694 -1.1028082 -0.43961647
