10

C 0.11918661 -0.5381593 0.19290085
C 0.75341445 -0.28859356 -1.1516848
O 0.67204964 0.7492379 -1.765676
C -0.6715347 0.6450688 0.7310197
H -1.111154 0.4034733 1.701653
H -0.5114427 -1.4331447 0.08625837
H -1.4770962 0.9206986 0.04363178
H 1.3256118 -1.148588 -1.5651444
H -0.027506212 1.5219098 0.850324
H 0.92847115 -0.8319031 0.87671757
