11

O -1.48678381 0.50313475 -1.04162019
C -0.75637444 -0.23327496 -0.11365213
C 0.27128641 0.47039208 0.74668936
O 1.28231993 -0.41476243 0.45326915
C 0.46287529 -1.07147805 -0.55639750
N 0.26537599 1.52477521 1.42471228
H -1.46804842 -0.81321416 0.48177129
H -0.99466000 1.30331756 -1.26153425
H 1.18390884 1.71544484 1.82355039
H 0.42665040 -2.15009473 -0.39162395
H 0.81345008 -0.83424016 -1.56516426
