11

O 1.1277741 -0.8218013 0.27311766
C -0.7451267 0.0062023024 -0.29014498
C 0.4336515 -0.6937953 -1.0012449
O -1.2134119 1.2383591 -0.7367101
C 0.1843212 -0.04449985 0.90357924
N 0.17403609 0.4862112 2.0392349
H -1.6107296 -0.6522228 -0.16953662
H 0.98190045 -0.039808348 -1.6857294
H -0.60502315 1.9276975 -0.44427845
H 0.250252 -1.6727778 -1.4482733
H 1.0223558 0.2664354 2.5599859
