11

O -1.8736696 -0.08955956 -0.10065965
C -0.6248656 0.49739426 0.08254041
C 0.27258077 0.07578165 1.2660303
O 1.3698776 -0.18140186 0.34048477
C 0.5427652 0.0013002413 -0.74207383
N 0.69780177 -0.2646191 -1.9573203
H -1.7436647 -0.9473147 -0.5238111
H -0.7507357 1.5827063 0.01994719
H 0.5445595 0.83875835 1.9973817
H -0.05211827 -0.8479468 1.7551991
H 1.6174693 -0.66509885 -2.1377184
