11

C -0.71761695 0.50681635 0.23005905
C 0.24990272 -1.22829766 -0.96688486
C -0.63335271 1.18220543 1.57228714
O 0.17365882 -0.45809093 0.24332739
C 1.14080504 -0.57825477 -1.93052874
N 1.83765778 -0.09539594 -2.71436001
H -0.75074695 -1.30096733 -1.39430382
H -1.65378432 1.25212990 1.96989806
H -0.31914869 2.21743291 1.38422009
H 0.64003498 -2.21349447 -0.70147725
H 0.03259033 0.71591638 2.30776343
