11

C -1.2960153 0.18946138 0.39216337
C 1.1321591 -0.422964 -0.9058892
C -0.100989856 0.72003245 1.2705715
O -0.9333183 -1.135383 0.06869512
C 0.37741545 -0.7502401 0.34539968
N 0.34519038 1.5545511 1.9713533
H 1.5156024 -1.3914608 -1.2566007
H 1.9899963 0.21456294 -0.67970604
H 0.5283097 0.0034930955 -1.7185707
H -2.1900856 0.20852034 1.0178958
H -1.3682641 0.8094268 -0.50531185
