10

C -0.14783601 -0.7755378 -1.005034
N -0.20889395 1.1484087 -1.8984853
N -0.26983404 -0.17544463 -2.1634784
C 0.18149166 0.045776345 1.3813207
N -0.02141691 0.15933777 -0.049984578
N -0.058785904 1.3632101 -0.6443151
H 1.2468797 -0.032343715 1.6100483
H -0.15123594 -1.8412949 -0.83188534
H -0.22681753 0.94212055 1.8477459
H -0.34355122 -0.83423245 1.754068
