10

C 0.80906299 -0.84987389 -0.50649695
N 1.58804111 -1.46267502 0.35062417
N 1.27068549 -0.95480941 1.56218539
C -1.01587163 0.91049927 -0.28649157
N 0.34616924 -0.07287668 1.46689995
N 0.03569029 0.01915050 0.16341707
H 0.78526367 -1.00417517 -1.57488589
H -1.97614610 0.38980913 -0.30150633
H -0.77773742 1.27863936 -1.28488579
H -1.06515778 1.74631176 0.41114025
