10

C 1.2309573 -0.66065764 0.12001269
N -0.985988 0.5450805 1.3572571
N -1.398213 1.3417356 0.38224757
C -1.0804669 0.74356437 -0.75816303
N -0.50470686 -0.55473286 0.83278245
N -0.5435852 -0.46430656 -0.5402452
H 1.5963628 -0.25175175 -0.8195302
H 1.3327227 -1.7367747 0.18564843
H 1.6155356 -0.12020197 0.97952527
H -1.2626185 1.1580448 -1.7395351
