11

C -1.08379614 0.04369276 0.24331925
O -1.08283800 0.07054643 -1.22311527
C -0.01805389 -0.34271100 -1.84130265
C 1.18587584 -0.00650817 0.93708139
O -0.07123646 -0.65935609 0.82917096
H -2.02474991 -0.44812205 0.50075475
H -1.10079596 1.10585654 0.52243954
H -0.32138086 -0.20360675 -2.90741920
H 1.71798644 -0.05281410 -0.01667530
H 1.74279130 -0.54678869 1.70569985
H 1.05619724 1.03981108 1.25004677
