9

N 0.24337958 -0.044843327 -0.9087798
C 0.24569497 0.9387268 1.165276
C 0.6981709 1.0324079 -0.14091113
N -0.48720482 -0.25634792 1.0785648
C -0.4911942 -0.83176816 -0.13233662
H 1.3201607 1.7809485 -0.61044633
H -0.9757012 -0.6505539 1.8680757
H -0.9819791 -1.7447042 -0.4355243
H 0.42867312 -0.22386572 -1.8839184
