10

O 0.73986986 0.28359030 0.55701581
C -0.74189036 -2.04549273 0.44553590
O 1.18875615 2.42845333 -0.07068351
C -0.23398748 0.16412515 -0.37257210
C -0.97659980 -0.96716351 -0.47031140
C 1.40993043 1.47791042 0.61227510
H -1.71959547 -0.94363354 -1.27155437
H -1.48162615 -2.83719688 0.18964410
H 2.17625465 1.40383702 1.39279725
H -0.36111180 1.03557066 -1.01214673
