9

O -0.61936998 1.97957935 -0.72574743
C -1.44751617 -1.40044740 -0.74899380
C 0.29569479 0.04676109 0.28778922
O 1.28433946 -0.33269209 1.13868278
C 0.17857571 1.50029769 0.04118345
N -0.48732100 -0.75980158 -0.30237797
H -1.26065310 -1.87870871 -1.72101833
H 1.16656475 -1.25695431 1.39137402
H 0.88968541 2.10196629 0.63910806
