9

O -1.157911 -1.286941 -1.0785029
C -0.38003847 -0.47232753 -0.34621507
C 0.4795436 -0.78943694 0.6526135
O 1.032597 0.393713 1.0812305
C 0.4703227 1.3305317 0.3148701
N -0.37779284 0.8859438 -0.5540139
H -1.6369939 -0.7261908 -1.7037436
H 0.80079037 -1.6896553 1.1460919
H 0.76948243 2.3543634 0.48766947
