9

N 0.7426832 0.43786013 -0.767308
C -0.21157151 0.5121232 0.34227878
C 0.119215176 -0.38844657 1.4413128
C -0.9716851 -0.014162603 -0.82234544
N 0.36050794 -1.1136837 2.3089771
H 0.016302258 0.5825844 -1.6214144
H -0.39790088 1.5296805 0.6851369
H 1.2670949 -0.43284607 -0.76831305
H -0.9246461 -1.1131094 -0.79832464
