11

N -0.98039186 -1.7051401 0.5945343
C -0.34791374 -0.5387927 0.15540875
C 0.9660591 -0.1624121 0.26884425
N 1.0422176 1.0497367 -0.40106103
C -0.19267917 1.3247496 -0.87473243
N -1.0597004 0.39412782 -0.55438584
H -1.9836174 -1.6008765 0.5138449
H -0.7307506 -1.9697417 1.5375103
H 1.8294686 -0.6225502 0.7224371
H 1.866323 1.6133227 -0.5152751
H -0.4090153 2.2175765 -1.447125
