11

C -1.07900765 0.19540350 -0.33102349
O 0.19044551 0.66587650 -0.58225479
C -1.76015164 -0.37460612 -1.31352507
C 1.68093228 0.01649155 1.00208534
O 0.78507298 1.05741654 0.63806771
H -2.77861233 -0.69766881 -1.13477498
H -1.43908031 0.36332444 0.68219265
H -1.32635131 -0.52411542 -2.29790681
H 2.43458489 -0.14495840 0.22212290
H 1.13905224 -0.91965211 1.19046818
H 2.15311474 0.36248811 1.92454851
