9

O 1.1616943 1.489678 0.6247455
C 0.31815252 0.54978335 0.19082619
N -1.3514574 -0.30913353 -0.82710326
N -0.6427497 0.7887394 -0.7031821
N -0.77963984 -1.3345145 -0.027021725
C 0.28305048 -0.78736544 0.5735982
H -0.842791 -1.3760458 -1.257822
H 0.9241472 2.321141 0.1893257
H 0.92959344 -1.3422824 1.2366335
