12

N -1.37202309 -0.27887347 0.36775605
C -0.79252999 -0.17342067 -0.90581843
C 0.50793451 0.16363964 -0.66440671
N 0.75513145 0.26665316 0.69113758
C -0.39431667 -0.00412491 1.24583564
O -0.66130027 -0.03395233 2.56164802
N 1.53479411 0.44646336 -1.56879444
H 1.50330778 -0.11909086 -2.40512473
H -1.36215972 -0.31889448 -1.81039915
H -2.32107606 -0.51681297 0.59551429
H 0.16643809 0.19044136 3.00724888
H 2.43579972 0.37797212 -1.11459720
