12

N -0.9135406 1.063169 -0.36135516
C -0.27889472 0.114893064 -1.178008
C 0.5136467 -0.5973215 -0.3249396
N 0.3943349 -0.13613872 0.972093
C -0.46073526 0.8453229 0.883607
O -0.9059648 1.6128864 1.8916492
N 1.40822 -1.6346081 -0.6008421
H 1.094375 -2.2539444 -1.3344736
H 1.6265956 -2.1479242 0.24273123
H -0.46066737 1.2931194 2.6875906
H -1.5786579 1.7650008 -0.6338284
H -0.43871182 0.07554534 -2.2442243
