10

O -0.76844525 1.0205553 0.29307106
C 0.5686533 0.9154819 0.47272334
C -1.2473004 -0.1827 -0.2997595
O 1.2616045 1.8008115 0.8786154
C 0.9569406 -0.4880651 0.04024131
O -0.27552134 -1.1675353 -0.07057287
H 1.5837027 -0.98059624 0.78754306
H 1.499963 -0.44138673 -0.9142589
H -1.3987406 -0.0027729664 -1.3719236
H -2.1808565 -0.47379234 0.18432046
