11

N -0.99949914 -1.4823731 -0.97438353
C 0.9891153 0.8300103 0.8700953
C -0.3904245 -0.4240985 -0.30492315
C 0.90864396 -0.40360838 0.26608202
N -1.0468215 0.7024852 -0.07858829
N -0.18910615 1.4467576 0.647235
H -0.48047343 2.359392 0.952721
H 1.7802669 1.2992828 1.4363631
H 1.6541663 -1.1840919 0.2453221
H -1.8438221 -1.1833742 -1.444646
H -0.38204563 -1.9603813 -1.6152775
