11

N 1.034102 -0.019432265 -1.552746
C 0.28008527 -0.026251137 -0.3739894
C -0.37434325 0.96897095 0.31988665
C -0.8749177 0.31721917 1.471552
N -0.573995 -0.96665853 1.4962599
N 0.13392876 -1.1572247 0.36097836
H 1.0346588 0.8962581 -1.9840972
H 0.7296396 -0.7065496 -2.231478
H -0.48221183 2.0041318 0.033338275
H -1.4549946 0.7467976 2.2778049
H 0.5480479 -2.0572615 0.18249092
