10

O 1.1544213 1.3203622 0.27341467
C -0.86478436 0.10856804 0.22270997
C 0.6082888 0.051519252 0.6539578
O -1.5921375 -1.0541052 0.26359633
C 0.9105894 0.36278498 -0.7281941
O -0.42840064 0.4332818 -1.1362389
H 1.686645 0.12190387 -1.4443772
H 1.0900378 -0.5125006 1.4427471
H -1.478593 0.89984566 0.66049314
H -1.0860672 -1.73166 -0.20810895
