10

O -0.74783665 0.42597362 1.4775242
C -0.77357906 0.72681534 0.22245914
C 0.649894 0.38069215 -0.19344439
O 0.9708892 0.122085474 -1.501669
C 0.084363066 -0.79696345 0.61408424
O -0.9311887 -1.152108 -0.15057129
H 1.3994708 1.0292462 0.26505113
H -1.5667202 1.3077554 -0.25061846
H 0.33018336 -0.55477214 -1.7842243
H 0.58452433 -1.4887246 1.3014089
