9

O -1.04582417 -1.02028655 1.66864110
C 1.00182840 -0.09709667 0.67833512
N 0.05725354 0.70702630 -1.08426328
N -0.91114671 -0.09262938 -0.46372482
N 1.23899410 0.53391086 -0.42044840
C -0.41456461 -0.49320096 0.77864859
H 0.16421212 0.49195104 -2.07212613
H -1.85988394 0.25794619 -0.50034730
H 1.76913149 -0.28762084 1.41528493
