9

O 0.8375345 -1.7230076 -0.62312424
C 0.27408814 -0.5733885 -0.21346118
N -0.6591955 0.0693512 -0.897134
N -0.90663403 1.1234031 -0.12482754
N -0.21584459 1.2106951 0.9887527
C 0.559669 0.12965655 0.9666829
H 0.4406479 -1.9613833 -1.4703274
H -1.5886884 1.8166802 -0.38444793
H 1.2584232 -0.092006765 1.7578865
