9

O -0.86600536 0.7912449 1.8823024
C 1.0400653 0.5110181 0.3610417
N -0.060237434 -0.4933887 -1.1965492
N 1.1646729 -0.03615417 -0.7994835
N -0.92232776 -0.440849 -0.09366386
C -0.32954544 0.3600407 0.88497186
H 0.013985887 -1.4288095 -1.5877644
H -1.898539 -0.27901387 -0.306191
H 1.8579309 1.0159116 0.85533607
