10

O -0.37727544 1.8986018 1.2647661
C 0.18915416 1.1875354 0.31804308
C -0.0092461 0.27964997 -0.76713926
C -0.23530495 -1.1734402 -0.5166052
N 1.2990745 0.89940697 -0.19435826
N -0.09635496 -1.6616552 0.647071
H -0.5150699 -1.7566874 -1.4037296
H -0.30122387 0.64351916 -1.7520223
H -0.26650628 -2.6682649 0.6314168
H 0.31275287 2.3513343 1.7725574
