10

O 1.9467671 -0.41384122 -0.06977491
C -0.18777837 0.5528361 -0.46490481
C 0.5919509 -0.5248512 0.08189433
C -1.4950715 0.86700004 0.035222765
N 0.08168584 -1.544013 0.66447866
N -2.0464687 -0.08850468 0.6339169
H 2.189733 0.50034964 -0.25719768
H -2.0169036 1.7766799 -0.29145953
H 0.10700976 0.9662375 -1.4270619
H 0.8290758 -2.0918927 1.0948862
