10

N -0.25097567 1.3184023 -1.0351157
C 0.8845034 1.3051858 -0.3892952
C -0.1743893 -0.4722352 0.24049036
N -0.22453858 -1.6682144 0.9250654
C -1.0146224 0.12277251 -0.66121566
O 0.95426875 0.2845167 0.46359265
H -1.1476243 -2.077779 0.8591256
H -0.81870997 0.78379565 -1.8715667
H 1.6942742 2.0192451 -0.41165623
H 0.09781406 -1.6156892 1.8805755
