10

N -0.29857729 -0.76771075 1.63050523
C -0.94627904 0.32364368 1.44113672
C 0.39725776 -0.97432012 0.44050826
N 0.39269585 0.33603290 -1.73302404
C 0.09838326 0.03561355 -0.41341236
O -0.75702587 0.87815733 0.20893985
H 0.49256102 1.32883006 -1.90276160
H -1.60687656 0.85169599 2.11229307
H 1.04165082 -1.83062852 0.29910341
H 1.18620994 -0.18131440 -2.08328808
