9

O 1.0903949 -1.0681689 1.4729115
C -0.4760472 -0.2412705 -0.45540115
N -1.017941 0.045682903 0.9764463
O 0.52106196 1.9123511 -0.69460434
C 0.08136413 -0.53410214 0.83120257
C 0.0047025294 0.95520616 -1.2168944
H -0.1486663 0.900034 -2.3146994
H 0.943103 -0.9605311 2.4262407
H -0.99797195 -1.0092015 -1.0252018
