9

O -0.36584992 2.02708277 -0.41006904
C -0.28077764 -0.35328115 -0.53719548
N -0.98966281 -0.56309670 0.83380326
O 1.35552665 -0.68823634 1.47928780
C 0.26010689 -0.56461703 0.77222728
C -0.35029749 1.03446847 -1.09564570
H -0.35350649 -1.17396710 -1.24992357
H 1.11100618 -0.80685396 2.41109087
H -0.38654541 1.08850076 -2.20357548
