9

N 0.06966936 0.7672959 -0.9440168
C -0.50552285 -0.50606936 -0.6222163
N 0.1632775 -0.25129473 1.2798204
C 0.78447545 -0.12131443 -0.04308554
O -1.1284636 -0.51600385 0.6549159
H 1.82013 -0.37899634 -0.21176639
H -0.8713598 -1.1959008 -1.3704813
H 0.07330542 0.65349144 1.7499882
H -0.40551126 1.548792 -0.49315822
