9

N -0.81004167 1.8444827 -0.13317189
C -0.10968896 0.8110243 -0.3516668
N -0.23951496 -0.30915788 0.45852673
C 0.4818627 -1.4714806 0.30124703
O 0.3659283 -2.4371312 1.0138985
H -0.59753215 2.572589 -0.80812865
H 0.6327178 0.6791206 -1.1474702
H -0.9064531 -0.2617835 1.2186966
H 1.1827219 -1.427663 -0.55193096
