10

N 1.6676464 -0.12356588 1.0767277
C 0.3238883 0.36580762 0.5659513
C 0.6572031 -0.3458782 1.7779764
N -0.8589074 0.34753615 -1.5446532
C -0.27762935 -0.4151335 -0.5690799
O -0.27820674 -1.6302149 -0.5758834
H 0.37812358 -0.81891274 2.7089312
H -0.60983676 1.3183882 -1.6467489
H 0.16686171 1.4450951 0.57755053
H -1.1691427 -0.14312167 -2.3707716
