15

N -0.474702 -2.238426 1.2954305
C -0.3161121 -0.92515326 0.9039007
O -0.7939768 8.7219494e-05 1.551049
N 0.4161373 -0.7579846 -0.2415733
C 0.93330413 0.54019934 -0.6723648
C -0.13709334 1.5829058 -1.0149813
O -0.6081559 2.3013356 0.08836404
H -1.1866316 -2.3458655 2.004425
H -0.47286332 -2.9560192 0.5879803
H 0.96456724 -1.5543765 -0.53007627
H 1.5292078 0.34038568 -1.568955
H 1.5976118 0.97053987 0.08900569
H -0.9442425 1.0821261 -1.5733831
H 0.31666258 2.3208694 -1.6865817
H -0.82371354 1.6393758 0.7677596
