11

N 1.42858441 1.16724952 1.53510319
C 0.03937336 -1.67983913 -0.04577956
C 0.69505791 0.51386528 0.74917387
N -0.99520829 0.51971164 -0.98915823
C -0.25175667 1.15003551 -0.18519294
C -0.88739760 -0.92976983 -0.97233420
O 0.75666103 -0.90045897 0.73698103
H -0.63458847 -1.28248642 -1.98452476
H 2.01344617 0.54983209 2.10124744
H -0.27400550 2.23832092 -0.14699749
H -1.89016657 -1.34646055 -0.79851845
