10

O 1.2416635 0.5081773 -1.753673
C 0.47256726 0.08544681 -0.73711014
N -0.063233964 -1.0925518 -0.6076645
C -0.74992687 -1.0236436 0.5922358
C -0.61246294 0.20439044 1.1637104
N 0.19097158 0.9246371 0.28485876
H 1.3052173 -0.2440434 -2.359239
H -1.3028078 -1.8745974 0.96645
H -0.988884 0.6362546 2.0782118
H 0.5068961 1.8759297 0.37222007
