10

O -0.64938015 2.2303603 0.11792803
C 0.5581374 -1.1164446 0.38118488
N 1.6791339 -0.61419666 0.06282242
C -0.7032804 0.98316467 -0.2983063
C -0.70775414 -0.39900014 0.062208366
N -0.80588984 0.2901908 -1.3283904
H -0.6149708 2.8153265 -0.6532045
H 0.4319029 -2.0759294 0.9003771
H 2.436114 -1.2386029 0.3441483
H -1.624013 -0.8748684 0.4112321
