10

N 0.67276549 -0.59730915 -0.85780605
C -0.16049633 0.15720585 -0.02778221
C 1.24699810 -1.65287107 -0.22769841
O 0.74939445 -1.55426522 1.02430800
C -0.08785838 -0.46254350 1.16124024
N -0.90115140 1.22740283 -0.53256574
H -1.45835727 1.67829777 0.18056611
H -0.32919723 1.91750434 -1.00369796
H 0.79887567 -0.42766230 -1.84392020
H -0.53097310 -0.28575971 2.12735627
