9

O 1.0071188 -0.9456778 -1.5004276
C 0.3095874 -0.34850994 -0.5218384
C -0.94222605 -0.6221953 -0.079865746
O -1.1969398 0.26748893 0.940137
C -0.089935444 1.0054781 1.0374583
N 0.84540796 0.6946229 0.19967216
H 1.8653643 -0.5042832 -1.5437188
H -1.7191458 -1.324366 -0.3248738
H -0.07923139 1.7774421 1.7934569
