9

O 1.2152745 -1.3092947 1.0664289
C 0.16963184 -0.72527033 1.2749884
C 0.49694687 -0.40527833 -1.4339486
O -0.7626641 1.6391892 -1.201205
C -0.22956544 0.49757692 -0.7673104
N -0.6306728 -0.046890147 0.3893003
H -0.27998236 -0.7033744 2.2821546
H 1.4127271 -0.8770706 -1.0835721
H -1.3916957 1.9304123 -0.52683574
