9

O 0.29069102 2.014816 0.76180553
C -0.6879314 -0.84144855 -0.6882419
N 0.63894194 -1.1928139 -0.3200326
N 1.104103 -0.13767369 0.34017536
C 0.13650249 0.7930108 0.25370008
N -0.9913447 0.41834056 -0.34197527
H -1.2413788 -1.440236 -1.4063027
H 1.179614 2.058719 1.1445402
H -0.4291976 -1.6727145 0.25633126
