9

O 1.5825051 -0.2821734 -1.5366186
C 0.6203229 -0.14932309 -0.6129408
N 0.3485056 0.99424815 -0.017320396
N -0.6668331 0.6271959 0.80186355
C -0.9360917 -0.6781231 0.65311354
N -0.13317974 -1.2124149 -0.24431302
H 1.9949336 0.5835439 -1.6540117
H -1.0986588 1.3082563 1.4045961
H -1.7115039 -1.1912098 1.2056315
