10

O 0.81243988 0.40248439 -1.81658897
C 0.47423919 0.22234565 -0.55183384
C 1.24210816 -0.36412145 0.46419831
N 0.57784150 -0.43435137 1.59714248
N -0.65306372 0.13541149 1.33932442
C -1.50539465 -0.41229235 0.44365344
N -0.70249221 0.71479940 -0.04220533
H 0.09102680 0.85524763 -2.27498123
H 2.24953769 -0.75266509 0.35916611
H -2.58624246 -0.36685839 0.48212494
