10

O 0.9906232 0.5071891 -1.7968525
C 0.3815775 0.18398792 -0.6558492
C 1.1492839 -0.27939746 0.43449908
N 0.56659126 -0.6066749 1.56707
N -0.7583086 -0.49723414 1.6803418
C -1.4270396 -0.054495525 0.62733465
N -0.9229899 0.30118257 -0.5633582
H 0.29988992 0.7979577 -2.4143543
H 2.226456 -0.37972033 0.3761006
H -2.5060835 0.02720497 0.7450684
