11

C 0.67436499 0.17828495 -1.40838647
C -0.30008438 -0.00030241 0.60815387
C -0.46138691 0.47437518 -0.76028571
C -1.11840342 0.07062971 1.65930572
N 1.62331389 -0.38326152 -0.55056500
O 0.94460414 -0.58861616 0.68967523
H -0.84070819 -0.33826020 2.62336280
H 0.95389795 0.36119728 -2.43823044
H 1.94262729 -1.30843191 -0.83004360
H -1.33704141 0.97871702 -1.14210771
H -2.08118404 0.55566791 1.54912150
