11

C -0.62214833 0.6619022 -0.43676195
C 0.5232864 1.1525453 -0.93162054
C -1.0170282 -1.2419604 1.1967866
C -0.26069397 -0.44218463 0.44318533
N 1.636235 0.51397943 -0.37910342
O 1.1124494 -0.5630326 0.39981058
H 0.6874442 1.971241 -1.6207967
H -2.0910954 -1.0984658 1.208538
H -1.6303859 1.0034004 -0.6204887
H 2.2447534 0.06974259 -1.063478
H -0.5828166 -2.0271678 1.8039285
