11

N -0.8540107 0.3181764 -0.47632197
C 0.32171166 0.155184 0.303887
C 1.4363375 -0.07140238 -0.4563538
O 0.9738981 0.2661182 -1.74279
C -0.3663583 0.5271563 -1.7681558
O -0.97185516 0.92119455 -2.726533
N 0.24331893 -0.6184985 1.5516684
H -0.06254102 -0.08626989 2.3701582
H -0.34324497 -1.4549365 1.4684715
H -1.5949308 0.95758194 -0.22168367
H 1.2176747 -0.9143042 1.6976532
