11

N -0.4604691 -0.4670333 -0.92158437
C -0.2048377 1.0218068 0.7723983
C -1.3401304 0.6040696 -1.1375515
O -2.156997 0.7094295 -2.0094078
C 0.06544504 -0.2316521 0.36051166
O -1.1312551 1.5314525 -0.14178239
N 1.3565125 -0.53299 0.9607179
H -0.7965359 -1.362793 -1.2453302
H 1.0891987 0.55574244 1.5165328
H 1.42474 -1.3867593 1.5116627
H 2.1543293 -0.44127324 0.3338332
