11

N 0.94818735 1.1427078 1.1218733
C 0.11838038 0.3234747 0.35840443
C -1.2045205 0.12774011 0.31169346
O -1.5110655 -0.72825295 -0.7368567
C -0.34780714 -1.0904945 -1.3574833
O -0.2739378 -1.8098172 -2.3168218
N 0.6638333 -0.46568105 -0.6579886
H 1.6154822 0.6209169 1.6786926
H 0.42201257 1.7621357 1.7226952
H -2.028095 0.4971212 0.8999159
H 1.5975304 -0.37985066 -1.0241243
