11

C 1.2973093 0.6373426 0.5748848
C 0.1019972 -0.29180855 0.41153628
C -0.7458372 0.05209911 -0.78402895
O -0.54011315 0.94841665 -1.5577322
C -1.9311162 -0.83147115 -0.974551
N -2.844881 -1.5201097 -1.1160333
H 1.9477772 0.60057807 -0.304058
H 1.8803742 0.34174222 1.450596
H 0.975558 1.6742495 0.7050375
H -0.55291456 -0.27150497 1.2923917
H 0.41184625 -1.339534 0.3019568
