12

C 1.67407093 -0.33573019 0.53597729
C -0.49505044 0.94962375 0.36700988
N 0.74908887 0.76240392 0.81173711
N -0.90503204 -0.06508218 -0.44935537
C -2.18139717 -0.03380284 -0.98857554
O -2.61415330 -0.89350744 -1.71728672
H 1.09362548 1.48639610 1.42069712
H 2.61699477 -0.13800245 1.04958550
H 1.27884553 -1.29271964 0.89806225
H -2.73498051 0.86200001 -0.66632935
H -0.36234209 -0.88692493 -0.72258456
H 1.88033007 -0.41465447 -0.53893765
