12

C -2.1667442 0.9975692 -0.21677895
C 1.4498029 -1.0467297 -0.07020221
N 1.1889524 0.23907474 0.5749317
N -0.9311111 0.3757671 -0.13065276
C 0.07263796 0.9701995 0.5787859
O -3.1009889 0.53385216 -0.8246796
H -2.1795633 1.9504819 0.3350842
H 2.4871478 -1.3301961 0.118364446
H 1.9572321 0.638095 1.0889663
H -0.88322026 -0.5162275 -0.6272856
H 1.3063444 -0.97739476 -1.1559399
H 0.79951 -1.834492 0.32940653
