10

C -0.09161479 0.32476736 -0.55291184
C 0.40491207 1.00376281 0.70751177
O -0.27087885 0.93217953 -1.58115877
C -0.35615301 -1.16274233 -0.44134085
H -0.77529226 -1.53750331 -1.37689125
H -1.04460710 -1.36760916 0.38535107
H 0.67755890 2.03912950 0.49059656
H 0.57953784 -1.68947529 -0.22153072
H 1.26338314 0.46786598 1.12517863
H -0.38684567 0.98962501 1.46519568
