10

C -0.30898273 0.103033796 -0.55990386
C 0.3510656 1.2258809 0.21455853
O -0.8926769 0.29678807 -1.5992004
C -0.19738127 -1.2773802 0.054193813
H -0.5700438 -1.2689145 1.0839559
H 0.31808966 2.1498086 -0.36737177
H -0.7632081 -1.9964254 -0.54094654
H -0.17933598 1.376186 1.1617901
H 0.8550382 -1.580975 0.09324421
H 1.3874354 0.97199774 0.45968008
