12

N -1.0724541 -0.17706007 1.4470152
C -0.59516203 -0.9740973 2.242672
C 1.4530255 -0.17647286 0.010569571
N 0.062027175 0.79959637 -1.7625604
C -0.9866801 0.53845865 0.372741
N 1.1794693 -1.3771226 0.19463985
C 0.16535674 0.4144742 -0.4556668
H -0.9695737 -1.9859331 2.3779387
H 0.90151894 0.7399442 -2.3202188
H -1.7751623 1.2412032 0.11736082
H -0.7916218 0.6146223 -2.2693605
H 2.4292564 0.34238693 0.044869315
