12

N 0.52867925 1.3729008 -0.6584795
C -0.47700778 0.8906247 -1.2584621
C 0.10539664 -0.8350376 0.55382216
N 1.1231529 -1.3715255 0.0091177225
C -0.41522032 0.49307644 0.121618964
N -1.302962 1.0475687 1.0988925
C 2.184563 -1.8213344 -0.40217426
H 2.1336741 -2.4717607 -1.2789041
H -0.80219495 1.2605162 1.9564203
H -1.7295537 1.8988276 0.7536716
H -0.93504316 0.90749896 -2.2377636
H -0.41348416 -1.3713549 1.3422402
