12

N -0.45759475 -0.45406672 1.9147829
C -0.14089863 -0.13600402 0.5987503
C -0.92615086 0.7221533 -0.17621204
N -0.59485847 1.083555 -1.4126116
C 0.5409333 0.58077973 -1.8936168
N 1.3681079 -0.24664444 -1.2559497
C 1.0219512 -0.598354 -0.020999743
H -1.4352225 -0.3834336 2.1596463
H -0.03928343 -1.3012191 2.2686408
H -1.8531948 1.1334685 0.21801063
H 0.8192941 0.8741052 -2.9021773
H 1.6969173 -1.2743399 0.5017364
