12

N -1.82316767 0.45812057 0.68473344
C 0.26398781 -0.75180667 0.61661373
C -0.58305326 0.30030709 -0.01370888
N 0.13398152 1.48917239 -0.60197016
C -0.44451578 0.68563689 -1.39168361
N 1.50778959 -0.85698721 0.36712592
C 2.72622607 -0.86930838 0.25162142
H -1.66261840 0.81711298 1.62111829
H -0.19936372 -1.46444738 1.29183601
H -2.43268341 1.09996782 0.19247098
H -0.62087423 0.55928790 -2.45095043
H 3.13429185 -1.46705606 -0.56720658
