9

N 1.2680087 -0.15558141 -1.5676528
C 0.22209866 -0.022451602 -0.86239594
N 0.29273662 -0.038317263 0.5222224
C -0.7869731 0.091961466 1.3663684
O -0.71207976 0.07325213 2.5712092
H 1.0445251 -0.122850634 -2.5553088
H -0.79886615 0.112710066 -1.2322303
H 1.2090644 -0.15546453 0.940327
H -1.7385142 0.21674179 0.8174606
