9

N 0.048021115 0.0021617226 0.5692681
C 0.18944699 1.178785 0.119948655
N -0.32523102 -2.2156458 0.03238672
C -0.19095278 -1.0167377 -0.3609564
O 0.4237856 2.2175193 0.9224583
H -0.24768639 -0.70583594 -1.4185668
H 0.45305708 1.8674513 1.828589
H 0.14246456 1.4941195 -0.92632437
H -0.49290517 -2.8218172 -0.7668031
