9

N 0.16022076 -0.2592524 0.16515574
C 0.86126125 0.6586343 0.8619959
N -1.4201217 -0.7668873 -1.4351472
C -0.7778437 0.123032786 -0.7957042
O 1.6612175 -0.013922549 1.695575
H 2.155975 0.648119 2.1915123
H 0.27059054 -1.2639518 0.29873326
H -0.8546568 1.2057129 -0.8901954
H -2.0566428 -0.3314848 -2.0919254
