9

N 1.2657638 -0.15537398 -1.5643834
C 0.21911335 -0.023862477 -0.8627513
N 0.29400998 -0.03744448 0.5217172
C -0.7830703 0.09317148 1.3648663
O -0.70810455 0.07867436 2.5689974
H 1.0427967 -0.12467575 -2.5533216
H -0.8026265 0.107186176 -1.2346587
H 1.2105045 -0.15368284 0.9380142
H -1.7383868 0.21600752 0.82151985
