11

C -1.3068075 -0.78840685 0.68149465
N -0.1295282 -0.05024718 0.26642236
C 0.39548546 0.10328557 -0.97126234
C 1.4892457 0.9045194 -0.7678795
N 1.5725523 1.1908057 0.55553526
N 0.5932876 0.6128811 1.1733764
H -1.3680406 -0.7068592 1.7659832
H -2.204238 -0.35866678 0.22965233
H -1.2160373 -1.83983 0.39702743
H -0.032229662 -0.35201237 -1.850815
H 2.2063105 1.2845304 -1.4795347
