11

C 0.5238903 -0.6808753 0.78255
N -1.1951015 0.6066761 0.19079633
C 0.44586423 0.35483223 -1.5168216
C -0.40144026 -0.79502064 1.8219041
N -0.033260416 0.10147044 -0.16680753
N -1.4603038 0.025266757 1.3554757
H 1.5359353 0.34168476 -1.5112404
H 0.07723206 1.3315933 -1.8272333
H 1.5010811 -1.1205877 0.63643384
H -1.056777 0.2523117 2.4222832
H 0.06288028 -0.41735175 -2.18734
