10

C 0.85202444 0.23249708 1.5641001
C 0.71503735 -0.10585022 0.10145646
O -0.5462118 0.055587657 -0.20478618
C -0.8906655 -0.22749901 -1.5722961
H -1.3338172 0.6795329 -1.9926978
H 1.6085008 1.0228832 1.6496686
H -1.6289197 -1.0324389 -1.5651402
H -0.07289618 0.53614086 2.0682657
H 1.2843994 -0.6431746 2.0638895
H 0.012548481 -0.51767874 -2.1124601
