10

C -0.9024785 0.3276631 0.9768589
C -0.1609782 -0.8250753 1.0697232
N -0.1694732 -1.1526704 -0.26636046
C 0.80243504 -0.45615712 -0.9947565
C 0.10736732 0.7020964 -1.181937
N -1.0158671 0.7688457 -0.33954784
H 1.8665429 -0.6607214 -1.0722902
H -1.3369021 0.9451027 1.757996
H 0.33083096 1.5576547 -1.8091804
H 0.47852284 -1.2067384 1.8594942
