9

O 0.29787102 0.59409916 -1.3644704
C -1.2028587 -0.99785393 -0.39777657
C 0.46737432 0.040081896 0.99491596
O 0.68622726 1.3230693 1.061342
C 0.16949539 -0.4259406 -0.4289021
N -2.2780712 -1.417382 -0.35859784
H 0.7281409 0.68870777 2.0426984
H 0.2684573 1.4343356 -0.87924105
H 0.8633637 -1.2391173 -0.6699682
