10

O 0.66309416 1.4763753 -1.24082
C 0.3419786 -0.50243884 1.2798308
N 0.42293504 0.7310613 0.9514403
C -0.23780853 -1.297334 0.16491133
C -0.18664318 0.81413186 -0.36712152
N -0.51155216 -0.5399794 -0.8252902
H -1.1485583 1.3379004 -0.22752076
H 0.6722119 -0.8809041 2.2431219
H -0.40646753 -2.3706484 0.1552308
H 0.39080992 1.2318356 -2.1337826
