10

O 0.1204006 1.798665 0.3444127
C -1.2932268 -1.455135 1.4564998
N 1.1292833 1.1036547 -1.5788832
C -0.4081455 -0.90748227 0.67225903
C 0.5224391 0.9244697 -0.38413158
N 0.45811507 -0.48307088 -0.088459976
H 1.3058729 2.040451 -1.9010476
H -1.0997552 -1.5101653 2.5201998
H 1.4908904 0.31267354 -2.084985
H -2.225874 -1.8240604 1.0441358
