11

O 1.1733875 -1.9114449 -0.7135804
C -0.55141497 -0.20863912 -1.0038847
N 0.84271646 -0.2392865 0.853792
C 0.5473327 -0.82072777 -0.24875608
C -0.94148284 0.8393871 -0.26710382
C -0.07670802 0.88195044 0.96189785
H -0.9313271 -0.56522685 -1.9506909
H -1.7323117 1.5437257 -0.49118447
H 1.853656 -2.13455 -0.060023423
H 0.4843364 1.8217808 1.0376465
H -0.66818446 0.79303133 1.8818873
