11

O 1.2535673 -0.6588111 -2.1059608
C 0.6243379 -0.34840202 -1.1147983
N 1.1413254 0.033441268 0.09950368
C 0.12919748 0.33957636 1.0823251
C -1.1385969 0.094012715 0.30525926
C -0.8588153 -0.29409918 -0.9366523
H 2.1332123 0.08618506 0.2605039
H 0.19072627 1.3777063 1.4335579
H 0.19145784 -0.31440553 1.9620442
H -2.1195354 0.2291719 0.7483889
H -1.546877 -0.54437584 -1.7341716
