10

N 0.78605336 0.4229535 1.3758898
C 0.6821088 0.3695481 -0.841321
C -1.2084935 -0.6498705 -1.2834553
O -0.13901317 -0.070458844 -1.87597
C -0.00905389 -0.0073549883 0.24161305
N -1.2045969 -0.6501843 0.013776334
H 1.1824682 -0.31647325 1.9520595
H -1.9675275 -1.0590266 -1.9365504
H 1.5032864 0.81439704 0.3915088
H 0.374768 1.1464698 1.9624492
