10

N -0.062706016 1.0144334 0.6543331
C -0.10829774 -1.3404889 0.47057262
C -0.23743609 0.46667603 1.8095117
O -0.27813655 -0.87416327 1.7991027
C 0.008452564 -0.12616256 -0.13119179
N 0.21972579 -0.01981449 -1.581647
H 1.1029536 0.434793 -1.8255978
H 0.24147984 -0.99799675 -1.8934665
H -0.35015854 0.9689707 2.761073
H -0.53587687 0.47375298 -2.06269
