10

C -0.9606314 0.50565785 -0.2711058
C 1.4489522 0.6861442 0.21152493
N 0.2562291 -1.4775047 0.2583418
C 0.16641812 1.2576435 -0.13891926
N 1.3214825 -0.6404129 0.3683088
C -0.86102736 -0.89032716 -0.057166334
H -1.7260852 -1.5418111 -0.15124303
H 2.1526556 -1.1670269 0.615454
H 0.12435893 2.3322053 -0.2994652
H -1.9223526 0.93543184 -0.53572994
