10

C 0.5960351 1.3857937 -0.5826134
O -0.4011048 0.38444492 -0.3877385
C -0.028270395 -0.62617564 0.43220052
O 1.0515745 -0.71566015 0.96507967
N -1.062239 -1.503941 0.57910526
H 0.8516798 1.8688031 0.36506137
H 0.14909339 2.1082456 -1.2662895
H 1.5012165 0.95569646 -1.0208594
H -1.8296502 -1.4644594 -0.07149367
H -0.828335 -2.3927476 0.98754764
