10

C 0.2087409 0.44020805 -0.17895433
O -1.086521 -1.4941092 0.17393856
C -0.050231855 -0.8361103 -0.48611802
O 1.1606175 1.1964523 -0.7826898
N -0.5136167 1.1797351 0.74135345
H -1.1208014 0.59174156 1.2907208
H 0.41268286 -1.3296291 -1.3374963
H 0.0447503 1.8205913 1.2831231
H 1.6466432 0.63818854 -1.4027151
H -0.7022635 -2.207068 0.69883764
