9

O -2.74201688 0.12174678 0.19370641
C -1.62529025 0.02818715 0.61396537
C -0.42541065 0.44867430 -0.25069292
N 2.02857187 0.67815878 -0.45553186
C 1.77292895 -0.52427882 -0.31744705
N 0.80013127 0.16777535 0.43711716
O -0.51652195 0.98584588 -1.31471140
H -1.36790177 -0.36356883 1.61710385
H 2.07550966 -1.54254066 -0.52350945
