9

O 0.6247216 2.0203302 -1.6706613
C 0.54011184 0.21135226 -0.131305
C 0.4717335 0.8367942 -1.5229034
N 0.111190744 -1.0254964 1.9325209
C -0.98776037 -0.88551784 1.3888916
N -0.51224935 -0.62096864 0.10538934
O 1.4759585 0.42052388 0.6116042
H 0.30183274 0.12855464 -2.355465
H -2.0255394 -1.0855724 1.6419288
