9

O -2.577971 0.6756617 0.29584712
C -1.6296304 0.09884226 0.76524955
C -0.30227968 0.045494385 0.09513381
N 0.763943 -0.54946196 0.54234934
C 1.6601806 -0.2804128 -0.45714444
N 1.1825382 0.4234863 -1.4409512
O -0.12840128 0.64487374 -1.0783906
H -1.6560106 -0.44024935 1.7276495
H 2.6876314 -0.61823434 -0.44974297
