11

C -0.43733054 -1.3804064 -0.5689392
C -0.5144223 0.014983996 0.03851477
C 0.841087 0.646955 0.22498837
O 1.8961217 0.14449567 -0.05854514
C 0.81071854 2.0093286 0.81802034
N 0.7761451 3.0668175 1.2777578
H 0.05123042 -1.3576553 -1.5466384
H -1.442893 -1.7895932 -0.69190025
H 0.13646875 -2.0556302 0.072521955
H -1.0079858 0.004447213 1.0189254
H -1.1091397 0.69625705 -0.5847055
