11

C 1.33156653 0.57061332 -1.26562587
C -0.50452488 -0.70220357 0.20915530
C 0.65989953 -0.16495435 -0.43607051
O 0.84710018 -1.19433380 0.45329379
C -1.18212757 -0.01341452 1.35918546
N 1.95556396 1.37721953 -1.96542951
H 2.07576588 1.06849192 -2.93060141
H -1.10750264 -1.41212072 -0.35834642
H -0.48255375 0.64635813 1.87957054
H -1.56913715 -0.75568014 2.06446392
H -2.02404993 0.58002412 0.99040486
