10

O 0.82233846 0.9339178 -1.7099422
C -0.01896817 0.8139205 -0.60343707
C 0.20731582 -0.49032888 0.121182054
O 1.0243803 -1.3001091 -0.26163247
C -0.6163873 -0.7873604 1.3640015
O -1.4402975 -0.02208435 1.7919729
H 1.3471165 0.12363203 -1.748494
H 0.13818079 1.6349665 0.11182067
H -1.0794486 0.8597077 -0.89615655
H -0.38423026 -1.7662617 1.8306849
