10

O -1.3926781 1.2952756 0.14011583
C -0.09542089 0.87979746 0.2381484
C 0.4193092 -0.15703093 -0.7689409
O 0.13336578 -0.089246936 1.3179556
C 0.58116966 -1.025295 0.37376136
O -0.44383168 -1.2954484 -0.5594659
H 1.2592645 -1.8189993 0.6667772
H 0.9149758 -0.050614357 -1.7262836
H -1.9144015 0.5057346 -0.068192475
H 0.5382474 1.7558275 0.3861244
