10

O -0.72728577 1.27026171 -1.22246239
C -0.05313911 0.91040275 -0.09058935
C 0.80357185 -0.36209156 -0.12211057
O -0.14308803 -1.40414247 -0.44281487
C -0.11650656 -0.87458459 0.86614869
O -0.90490024 0.28416203 0.92906721
H 1.85015220 -0.52327856 -0.35059086
H 0.42772389 1.79848355 0.32286474
H -1.07368948 0.44933890 -1.60332042
H -0.06283872 -1.54855166 1.71380756
