10

O 1.0679682 1.1180061 -0.21190898
C 0.15860184 -0.5423289 -1.1367731
C 0.7998082 -0.15332855 0.13705382
O -1.0507195 1.0482783 0.98191875
C -0.6439897 -0.15245439 0.76094246
O -1.0835705 -0.6216358 -0.92168283
H -0.28111082 1.5760611 0.5482661
H 0.57362664 -0.5582007 -2.1458101
H -1.0979205 -0.95430326 1.3369583
H 1.557306 -0.76009387 0.6510355
