11

N 0.02257069 -2.47465374 -0.69706225
C -0.65311306 0.94423899 0.38053754
C 0.53726203 1.39384493 -0.00668079
C -1.12403798 -0.43933053 0.30692677
C -0.47405790 -1.48149069 -0.17681048
O 1.48078340 0.55920170 -0.52181142
H 2.26277201 1.05610309 -0.77086955
H 0.80942346 2.44576084 0.07678211
H -1.35007114 1.67153240 0.78578409
H -2.11780987 -0.64956129 0.69176627
H 0.60627816 -3.02564560 -0.06856225
