12

O 1.0116876 0.54589695 0.4139156
C -0.58245087 -1.124196 0.008497102
C -0.22711487 0.20006722 0.5085998
C 1.3968124 0.03789061 -1.0124735
N -1.092645 1.119879 0.92634994
H 0.042520147 -0.9310665 -1.0156767
H -0.80249345 2.0899749 0.98967046
H 2.3154812 -0.5384126 -0.85764617
H -0.0027210377 -1.9127488 0.49088442
H 1.6441354 0.97982585 -1.5295796
H -1.654987 -1.3359295 -0.02330725
H -2.0482247 0.8688191 1.1007658
