10

O -0.56477994 -1.8800474 -0.7883794
C 0.21049404 -0.99112576 -0.045958165
C -0.3159417 0.41973552 -0.14416851
O -1.2936021 0.69138366 -0.8089466
C 0.40552294 1.5277117 0.6079686
O 1.3814379 1.3184724 1.2786672
H -1.2632899 -1.3578337 -1.2076032
H 0.23598984 -1.2713964 1.0187683
H 1.2573253 -0.9853884 -0.38723725
H -0.053156298 2.5284886 0.4768891
