10

O -0.37716973 1.1995006 1.1081443
C -0.62934464 -0.98174 0.01455991
C 0.5130984 0.31248087 -1.0593157
O -0.23911074 -0.7712664 -1.3769042
C 0.28615794 0.15857886 0.4535875
O 1.0893912 1.0555538 -1.7913145
H -0.36887875 -1.9871738 0.34396523
H -1.6888559 -0.76733094 0.16149421
H 0.21945044 1.9547633 1.1707654
H 1.1952618 -0.17336616 0.9750181
