9

N -0.6945836 -1.7289006 0.72303444
C -0.040941905 -0.75806296 0.26584616
O -0.4579065 -0.0086208405 -0.81689316
C -0.31066656 1.3511826 -0.78240126
O 0.060826488 1.977378 0.16183822
C 1.2833173 -0.46663326 0.78910774
N 2.3497996 -0.28498623 1.1902306
H -1.5827919 -1.826687 0.23224898
H -0.60705286 1.7453306 -1.7630117
