9

N 1.6902719 -1.315726 -1.5697218
C -0.454612 -0.112080336 -0.7004749
O 1.0701286 0.68437207 1.2591361
C 0.043937728 0.010904775 1.5894742
O -0.7908084 -0.39108267 0.6259593
C 0.7476373 -0.7692859 -1.1843598
N -1.1864973 0.5600668 -1.4703227
H 0.8786474 0.40925384 2.421142
H -1.9987055 0.92357755 -0.9708327
