11

C 0.023378765 -0.53199905 0.26585492
N -0.22568966 -1.7247907 0.45131558
C 1.077416 0.2662821 0.95639443
O -0.21958771 -0.14249314 -1.5598444
C -1.0630583 0.7289394 -1.2241713
O -1.2589699 0.8785709 -0.009396993
H 1.6281444 0.84492534 0.21356402
H 0.62123615 0.95111024 1.6709892
H -0.76015365 -2.194594 -0.26812643
H -1.581975 1.350396 -1.9571971
H 1.759259 -0.42634743 1.4606181
