10

O 0.10843151 1.27718599 -1.37799669
C 0.07459806 0.24279189 -0.52637771
C 0.30054082 -1.04901261 -0.80386280
N 0.16203186 -1.81510486 0.38826302
N -0.13090108 -1.09737390 1.37238668
C -0.23074704 0.29916283 0.93532622
H -0.07459529 2.10500166 -0.91505195
H 0.54947292 -1.53110073 -1.73962779
H 0.48136361 0.90422846 1.50872828
H -1.24019545 0.66422121 1.15821244
