10

O 1.33829 0.33059415 1.3901734
C 0.38166395 0.011571018 0.49159548
C -0.3362623 0.8186039 -0.4016097
N -1.0178238 -1.28662 -0.7116674
N -1.2586884 -0.044390358 -1.1161194
C -0.09828309 -1.2726259 0.261993
H -0.21877605 0.44789994 -1.6281646
H 0.22174221 -2.1845565 0.7508334
H -0.48135397 1.8927139 -0.43431124
H 1.4694915 1.28681 1.3972772
