11

N 1.0727099 -0.18765979 1.1461915
C 0.31849405 -0.8410816 0.24864814
C -1.1540772 -0.65413874 0.33943537
N -0.14874831 0.7921181 -0.8780416
N -1.4545101 0.37916237 -0.3569051
C 0.6411801 -0.39628768 -1.0597073
H 0.48915362 1.0179536 0.34073648
H -0.27769208 1.4893534 -1.6020024
H 1.685666 -0.14755826 -1.2176349
H 0.73075396 -0.2900172 2.1026664
H -1.90293 -1.1618441 0.9366134
