11

N 0.29054161 0.63558916 -0.70878298
C -1.14489543 0.37042703 -1.03979677
C 0.52698492 -0.10160412 0.59137722
N 1.64900524 0.14919952 1.14615971
N -1.55123762 -0.60117080 -0.23874805
C -0.65588934 -0.86959848 0.72791969
H -1.45266799 0.44481826 -2.07148865
H 0.51855706 1.62507652 -0.56728193
H 0.96200377 0.26733890 -1.39830318
H 1.73786096 -0.37625170 2.01549112
H -0.88026312 -1.54382412 1.54345369
