13

N -1.69401352 -0.34422381 -0.41079651
C 1.92863208 0.50440847 -0.18915163
C -0.30303457 -0.31811887 -0.84860593
N 0.35379217 -0.11307748 1.49745418
C 0.50633661 0.49252650 0.17924949
N 3.04566824 0.53893705 -0.48529560
H -0.23095414 0.17892006 -1.82071802
H 0.15335298 -1.31407386 -0.93191419
H 0.14905697 1.53167079 0.14002865
H 0.91167429 0.38054185 2.18433810
H -2.32909313 -0.36632571 -1.19844715
H -1.87237565 -1.18199292 0.13000357
H -0.61904278 0.01080801 1.75385500
