11

N -0.20322639 1.4070387 0.89770496
C 1.0577465 0.71248555 -0.8472714
C -1.0018735 0.4031844 0.88881373
C 1.0467753 1.3859718 0.5197778
C -0.4272466 -0.8366718 0.3176946
N -0.9764987 -1.9650197 0.48803154
O 0.65356153 -0.64724445 -0.49150363
H -0.50916725 -2.6698205 -0.09339402
H 2.0568528 0.61028266 -1.2642908
H 0.35179895 1.1252036 -1.5776294
H -2.0487227 0.4745899 1.1620669
