11

N 0.12867755 -2.01843869 0.98100672
C 0.55939348 0.91458969 -1.09313170
C 0.04568579 -0.83948156 0.52599685
C -1.06305446 0.06576295 0.90658057
C 0.22704067 1.79561191 0.10514584
N -0.86633250 1.30065250 0.62024512
O 0.88445128 -0.34753175 -0.42966447
H 1.47468400 1.21136857 -1.59981657
H -0.26399726 0.75566524 -1.79945434
H -2.00569504 -0.31328316 1.28527844
H 0.87914628 -2.52491571 0.49781292
