11

N 0.9676532 0.46442264 -2.1421201
C 0.5816543 0.24284565 -0.95695055
C -0.79748404 -0.118343145 -0.64238966
C -1.150435 -0.3405317 0.627752
C -0.1261227 -0.21000955 1.6423076
N 1.0976325 0.102715775 1.4148352
O 1.461286 0.33354402 0.10458489
H 1.9579972 0.7013076 -2.1668622
H -1.4777846 -0.1871327 -1.483275
H -2.1618767 -0.6113496 0.912213
H -0.35252038 -0.377469 2.6899042
