10

O -2.385797 0.95807004 0.4047425
C -1.7688457 -0.057802126 0.6243244
C -0.35825816 -0.22493608 0.21143274
N 0.27607745 -1.3437746 0.46867236
O 1.5387752 -1.1757069 -0.02826689
C 1.6378062 0.05085821 -0.57679343
C 0.46993157 0.7186152 -0.46421018
H -2.2121508 -0.92275286 1.1514318
H 2.604491 0.28836527 -1.0023439
H 0.19797052 1.7090636 -0.78898937
