10

O -0.38748382 2.43278415 -0.91429854
C -1.24132086 0.45844005 0.23236038
C -0.63761010 -0.69375011 0.51716334
N 1.62555316 -1.51887686 0.09166421
O 0.91989469 0.62025240 -0.58236666
C 0.75032771 -0.62047147 0.00772822
C -0.26478594 1.32827396 -0.47848405
H -1.01560229 -1.57241841 1.02048833
H 2.50250797 -1.21847056 -0.33554901
H -2.25148024 0.78423660 0.44129383
