10

O 0.76328 1.6350933 1.910078
C -0.9603624 0.8643163 0.36837158
C -0.9228817 -0.10840609 -0.5402141
N 0.83112067 -1.6796007 -1.2024941
O 1.154941 -0.070378006 0.48086214
C 0.36487496 0.9166222 1.04405
C 0.42094848 -0.7273092 -0.4917925
H -1.7634677 1.5398299 0.6309012
H -1.6837636 -0.44835627 -1.2285198
H 1.7953103 -1.9218112 -0.9712426
