10

O 0.8906699 -0.1989008 1.336492
C -1.4340472 0.8230306 0.9760744
C -1.249443 0.5457515 -0.34654993
N 1.95013 -1.0553594 -0.545492
O -1.6740245 1.1189394 2.0551825
C -0.09685033 -0.04509774 -0.82291365
C 1.0065619 -0.463394 0.1015632
H -2.0948877 0.8254081 -0.9758993
H 2.6870434 -1.3251146 0.111340255
H 0.014847455 -0.22526316 -1.8897973
