11

O 0.37783226 2.084355 -0.47323984
C 1.4467683 -1.0942459 -0.44907108
N -0.7440713 0.07828318 0.71822006
C 0.6531954 1.1104772 0.16723834
C 0.2678191 -0.42268234 -0.35038725
C -1.1548421 -0.31585586 -0.65984684
H -1.707417 -1.2478158 -0.73658574
H -0.8803363 -0.6054266 1.4603153
H 1.9609088 -1.1459001 0.5273216
H 1.3255085 1.0379863 1.033061
H -1.5453657 0.5208253 -1.2370256
