11

O 1.48935942 -1.67736047 0.14853240
C 0.37294984 0.70716828 -0.99621781
N -0.62812285 -0.24190692 -1.24459036
C 0.58146066 -1.17226781 0.75336037
C -0.28014320 -0.06471005 0.19123907
C -1.05255286 0.84182141 0.93602332
H 0.15852252 1.76854140 -1.06942765
H -1.51890343 0.24411075 -1.36309535
H 0.32898162 -1.46989264 1.79417016
H 1.39575503 0.37756358 -1.16271017
H -0.84730699 0.68693271 2.01271618
