11

O 0.46219075 -0.85430634 -0.97354555
C 0.5887795 -1.6563356 0.19665727
C 0.035578188 1.563532 -0.17459486
O -0.054226864 -0.68088984 1.0122119
C -0.11963165 0.109440826 -0.15000525
N -1.2400273 0.8687251 -0.5161966
H 0.027941076 -2.591903 0.13762838
H 0.10367325 2.0717509 0.78478724
H -1.9403867 0.92398924 0.2141989
H 1.6315109 -1.8196362 0.48410025
H 0.5045989 2.0656333 -1.0152415
