11

O 0.15052091 -1.48288586 0.63285217
N -1.13255125 1.11046206 -0.64330367
C -0.01584367 -0.17459784 1.19322543
C 0.30005134 -0.93656285 -0.68624851
O -0.97639295 2.21234890 -1.10116225
C 0.13563034 0.50409891 -0.17706267
H -0.99906968 -0.04716335 1.65993948
H 1.28135290 -1.16359873 -1.11760449
H -0.49399913 -1.27653384 -1.35936467
H 0.77341709 0.06652695 1.91378069
H 0.97688397 1.18790570 -0.31505176
