11

C -1.013215 0.50176257 -0.26004463
O -0.40873417 0.88953984 0.96193075
C 0.83200276 0.20198067 0.8259299
C 0.3366918 -0.814281 -0.20633353
O 0.8954286 -0.99736905 -1.3868439
H -0.2369845 -1.640089 0.25174838
H -2.0227659 0.103278786 -0.13289233
H 1.1721455 -0.20937657 1.7810373
H -1.0116392 1.3271755 -0.9951602
H 1.6093197 0.83314735 0.3765457
H -0.15224944 -0.19576892 -1.2159175
