11

C -1.03439010 0.11937291 0.49684440
O 0.46776358 1.26171383 -1.20826385
C 0.80583648 -0.77885224 0.27072078
C -0.04882660 0.07345425 -0.68439717
O -0.27264743 -0.86341434 1.21229334
H -2.06491128 -0.20620433 0.31705488
H -1.04879851 1.09255067 1.01235064
H -0.43047129 -0.49111707 -1.53807176
H 1.67173557 -0.23448328 0.67927063
H 1.13331935 -1.76573626 -0.07578368
H 0.82139023 1.79271577 -0.48201781
