9

O 1.5845937 -0.27947173 -1.5386695
C 0.6206383 -0.14789017 -0.6136474
N 0.34747985 0.99421775 -0.015296031
N -0.66847056 0.6249775 0.80406535
C -0.9366317 -0.68021303 0.6529562
N -0.13237326 -1.2119592 -0.24652694
H 1.9927 0.58906186 -1.6572549
H -1.0987184 1.306994 1.4072051
H -1.7092178 -1.195717 1.207168
