9

O 1.07145973 0.63027555 -1.80041756
C 0.40034620 0.26212369 -0.71795249
N 1.09239540 -0.54035880 0.26857520
N -0.80586943 0.53659923 -0.44067352
C -0.98923614 -0.11302776 0.82786870
N 0.27850770 -0.76544801 1.18441380
H 1.96894634 0.27122698 -1.73277002
H -1.24583492 0.59682854 1.62038784
H -1.77071474 -0.87821945 0.79056794
