11

N 0.32925364 2.927999 0.45010042
C -0.20639156 1.9108641 0.35199073
C -0.8537231 0.60241747 0.20676
C 0.009100709 -0.35462683 -0.5960459
C 0.914055 -1.2931907 0.06476904
O -0.33382908 -1.7197981 -0.47058588
H -1.8228456 0.7376924 -0.28515017
H -1.0468596 0.17660448 1.1969595
H 0.23767471 -0.03390141 -1.6122361
H 1.7960517 -1.6560389 -0.45908695
H 0.9775132 -1.2980223 1.1525253
