11

N -1.0937519 -0.6251245 0.9685155
C 0.33764374 0.5648034 -0.5991045
O 0.6584173 -0.7935238 -1.0599359
C -0.7825646 0.5725089 0.4193744
C 1.7622199 0.3665235 -0.22227271
O -1.2930088 1.6303943 0.73870575
H -0.6833655 -1.4798479 0.63666564
H 1.7172875 -0.1188706 0.7722707
H 0.09999801 1.2462279 -1.4166679
H -1.7907939 -0.64734846 1.6976084
H 1.0679187 -0.71574277 -1.9351593
