12

O 1.15196028 1.20196557 -1.96989313
N 0.53333369 1.08602868 0.26636651
C 0.60905860 0.63879912 -1.04487766
C 0.04909032 0.02209957 1.13158651
N -0.05518058 -0.57738081 -1.09300299
C -0.79226229 -0.79642282 0.13934700
H 1.28561994 1.68683852 0.56937782
H -0.54733127 0.40461877 1.96324774
H 0.87146950 -0.58473677 1.53137617
H -0.83650696 -1.85438297 0.40984141
H -1.81374169 -0.39939150 0.08237148
H -0.45550953 -0.82803497 -1.98574121
