10

N 0.06566043 0.40743539 0.09756111
C -0.55921471 1.33719966 0.85477606
O 0.34968128 2.31584793 0.99995559
N 0.31095377 -1.64070459 -0.95090094
C -0.57000241 -0.78483303 -0.32094866
O -1.74378306 -1.00797092 -0.18635837
H -0.06498875 2.98854971 1.55024463
H 1.28239471 -1.63823255 -0.68020741
H -0.08436912 -2.55334804 -1.12857750
H 1.01366806 0.57605624 -0.23554440
