10

N -0.1561962 0.27711156 0.2804371
C -0.22519155 0.3597436 1.6282934
O 0.16158411 -2.0114179 0.14001054
N 0.28940356 -0.7392851 -1.7500056
C 0.12155077 -0.9348483 -0.39390078
O -0.54293525 1.6427842 1.8686415
H 0.6292207 -1.5618099 -2.228278
H 0.664522 0.1363065 -2.0810707
H -0.35734954 1.096721 -0.2904293
H -0.58460855 1.734694 2.8263016
