10

O 1.9067479 0.23166703 0.82110375
C 0.58747363 0.24660505 0.6987521
C -0.5467605 -0.61017096 0.34137732
C -0.57637644 0.8301354 0.7870684
N -0.87909293 -0.94145715 -1.0437888
N -0.10101978 -0.42913452 -1.8647854
H -0.4419249 -0.70450264 -2.795531
H -0.9196435 -1.4026185 0.9963017
H -1.2298776 1.6619368 0.97902787
H 2.2004738 1.1175399 1.0804737
