9

N -0.19109828 -0.28744463 -1.83884991
C 0.61220082 -1.04493759 -1.15795453
C -0.07940033 0.25267047 0.27762050
N 0.72651083 -0.76811024 0.17794990
N -0.32485889 0.99862321 1.38440969
O -0.67186809 0.60626392 -0.85774697
H 1.15217338 -1.84962256 -1.64120383
H -1.17867184 1.53038882 1.40728876
H -0.04498758 0.56216847 2.24848701
