10

O -2.3903327 0.95590544 0.4082584
C -1.7688448 -0.057099488 0.62543815
C -0.35779467 -0.22237046 0.2117144
N 0.27365234 -1.3406811 0.4651507
O 1.5353243 -1.1758738 -0.030716423
C 1.6401017 0.048623335 -0.57719
C 0.47201866 0.7189917 -0.4627684
H -2.2107687 -0.9260926 1.1479346
H 2.605506 0.28738758 -1.0025368
H 0.20113808 1.7112093 -0.7852846
