9

N -1.26217403 -0.49627544 1.77884470
C 0.61745695 0.39057993 -0.95109849
N -0.23821835 0.51820182 -0.02587836
C -0.42400217 -0.57426066 0.83025815
O 0.87259475 1.37623530 -1.81420649
H 0.28904874 2.11473549 -1.57365931
H 1.23315183 -0.48872592 -1.16433348
H -1.27418452 -1.37163343 2.29696919
H 0.18632671 -1.46885691 0.62310442
