9

N -0.007831827 0.335242 -0.33315971
C 1.0958986 -0.013493539 -0.93907964
N -1.6839489 0.22176918 1.2449156
C -0.60252875 -0.2466947 0.78302294
O 1.2701275 0.77233994 -1.9280705
H -0.052527327 -1.1065582 1.1881142
H -1.9735521 -0.32587284 2.0538614
H 1.7849144 -0.8191956 -0.68733764
H 0.16944812 1.1824638 -1.382267
