9

N -0.8062288 1.8478171 -0.12831384
C -0.11013549 0.8119069 -0.34997004
N -0.23516545 -0.3086425 0.45609185
C 0.48061123 -1.4727464 0.30087936
O 0.36171272 -2.441355 1.0112298
H -0.5966851 2.5745437 -0.8032303
H 0.62674284 0.67964745 -1.1506244
H -0.90408134 -0.26504308 1.2155447
H 1.1832293 -1.426128 -0.5516068
