11

C 1.5479212 0.77072227 1.535016
C -0.4890278 -0.45392853 0.81583863
C -0.61843634 -0.3226047 -1.5528791
O 0.632511 0.99389505 -0.5924713
C 0.5413155 0.4346224 0.5343917
N 2.3434 1.03279 2.3344831
H -1.4788339 -0.05634167 0.6009731
H 0.25551268 -0.9050505 -1.8208616
H -0.42892116 -1.153386 1.6447408
H -0.7952766 0.56492776 -2.1477551
H -1.5101649 -0.9056461 -1.3514763
