9

O 1.3700777 -0.69110554 -0.7429932
C -0.30941236 -1.1583152 -0.6331155
N -1.0679525 -0.042275786 -1.0070307
N -0.88407207 0.86095774 -0.067846775
C -0.028970165 0.51412433 0.89949626
N 0.399265 -0.7418465 0.63742214
H 1.7254527 -1.5869675 -0.74302846
H -1.4253261 1.7181319 -0.09773183
H 0.22093776 1.1272963 1.7548279
