9

O 1.581404 -0.27950922 -1.5403622
C 0.6192776 -0.14781745 -0.613808
N 0.3485571 0.99484557 -0.017252214
N -0.6666655 0.62557477 0.80399626
C -0.93502504 -0.67986786 0.6539767
N -0.13295896 -1.2131437 -0.24561892
H 1.9891992 0.58927286 -1.6600329
H -1.0947827 1.3057134 1.4106728
H -1.7090058 -1.1950685 1.2084284
