10

N -0.6577131 -1.2175051 1.1915396
C -0.17719324 -0.30632776 0.25707504
C -0.7811093 0.7303959 -0.3783163
O 0.14086892 1.2654965 -1.2507044
C 1.2337888 0.5165763 -1.0823807
N 1.1217127 -0.4275797 -0.20862187
H -1.3229581 -0.8361943 1.8487132
H 0.10076504 -1.6862276 1.6680173
H -1.7549685 1.1921626 -0.36175886
H 2.0968068 0.7692031 -1.6835631
