10

N -0.23061486 1.1837891 -0.8479944
C 0.0050710235 -0.088281095 0.99367756
C 0.07225768 -0.013741815 -0.4588387
O -0.5563929 1.9036189 0.31340924
C -0.3454194 1.2054667 1.4512813
N 0.3526705 -1.0485721 -1.3251935
H -1.1699516 0.22454977 1.521036
H 0.51240873 -0.7511 -2.2777894
H 1.0451269 -1.7056929 -0.9964728
H 0.31484386 -0.9100367 1.6268846
