10

N 0.7361913 0.39847225 1.3971525
C -0.9042625 -0.7285851 -1.6879832
C -0.7848199 0.32221678 -0.6054204
O -0.013660871 -1.607877 -1.3911687
C 0.3280816 -0.20795207 0.25021556
N 0.8021744 -1.3186924 -0.17229298
H 0.5670759 1.3858223 1.4968388
H -1.7352571 0.40114436 -0.06356084
H 1.5822465 0.051232617 1.8210088
H -0.57776934 1.3042184 -1.0447897
