10

O -0.7960256 -1.7331032 -0.7476979
C -0.2984766 -0.5867111 -0.23540753
C 0.864074 0.12499543 -0.42174193
C 0.71055186 1.2352585 0.44668633
N -0.43314213 1.2114255 1.104241
N -1.0381824 0.083143085 0.6702414
H -0.15756086 -2.0954092 -1.3735118
H 1.6894472 -0.11489058 -1.0755153
H 1.4045169 2.0502915 0.608776
H -1.9452026 -0.1750002 1.0239297
