10

O 1.0304301 -1.4015071 1.4599631
C 0.7201625 0.6346844 0.06459849
C -0.4819991 0.85468805 -0.80103946
C 0.40229365 -0.7293241 0.6776588
N -1.3234376 -0.10956246 -0.74411786
N -0.81729424 -1.0513989 0.121908054
H -1.3444308 -1.8898629 0.30107152
H 1.658549 0.593485 -0.49713454
H -0.6813103 1.7097367 -1.4324659
H 0.8370368 1.3890612 0.849558
