10

O 1.11109885 -1.67200266 -1.06177540
C 0.43523047 -0.85023325 -0.49056407
C -0.52158291 0.99823632 0.57961587
C 0.76271033 0.58237201 -0.06889852
N -1.41047799 0.07587231 0.56744844
N -0.86327352 -1.01951289 -0.06019509
H -1.41512456 -1.85480317 -0.16385301
H 1.02519248 1.18857622 -0.94149820
H 1.61980971 0.59419893 0.61238422
H -0.74358310 1.95729592 1.02733575
