10

O -0.7985878 0.32498145 1.9064192
C 0.5899197 0.12109194 -1.2070878
C -0.32790297 -0.14517172 0.80447215
C 0.68100166 0.6261133 0.1472608
N -0.81748396 -1.0356145 -0.06635802
N -0.27563468 -0.84480023 -1.3358731
H 1.1795665 0.40968493 -2.068241
H 1.6274782 0.8330097 0.63971764
H -1.6823767 -1.544814 0.016710307
H -0.17598008 1.2555194 1.1629802
