11

C -0.2802379 0.3873856 0.16895832
C 1.0543813 1.117168 0.15390131
C -0.17094201 -1.042497 -0.28709728
O 0.8237302 -1.610597 -0.63269717
C -2.4522004 -2.2896817 -0.27471375
N -1.4137256 -1.7288755 -0.28025663
H 0.91855764 2.1495461 0.48849496
H 1.4846764 1.1343411 -0.8511499
H -1.0198631 0.8783728 -0.47543374
H 1.7771229 0.6327078 0.8161012
H -0.7214994 0.3721299 1.1738929
