11

C 0.37419757 -0.31536302 1.001679
C -0.48087016 0.073134206 -0.16268532
C -0.6649375 -0.9769729 2.3413043
O 1.5353591 -0.48920953 1.0786248
C 0.3360487 0.27674836 -1.4349128
N -0.4591368 0.17228153 2.5809214
H 0.8791927 -0.632924 -1.7040268
H -0.33037397 0.5400178 -2.2619839
H 1.0649054 1.0816699 -1.3083173
H -1.2386711 -0.71030694 -0.2712302
H -1.0157142 0.9809245 0.14062606
