11

C 0.9894494 0.23477773 -1.3345066
C -0.7295384 0.692943 -0.7282596
C 0.050252423 -0.04031485 0.025074363
N 0.49455276 -0.9053607 0.8610105
N -0.42233908 -1.2400703 1.8653393
N -1.3731167 -0.44304687 1.9818089
H 1.0122375 -0.722309 -1.8501613
H -0.8068278 1.7744869 -0.6795623
H -1.9465575 -0.8381168 2.7333996
H 1.9262385 0.45704767 -0.8150394
H 0.80564874 1.0299633 -2.059104
