11

C -0.86369122 0.69730275 0.08167032
C -1.18171992 0.70850222 1.55423565
C -0.23296210 -0.28020083 -0.51452607
N 1.66145335 -1.40482246 -1.09957241
N 2.15688234 -0.97045566 -2.14219149
N 0.27122881 -1.25190946 -1.07799966
H -2.26450480 0.73544517 1.71079841
H -1.17072205 1.53979408 -0.53591165
H -0.74886692 1.58940941 2.04147368
H 3.16048250 -1.17874826 -2.06733773
H -0.78757987 -0.18431670 2.04936102
