11

C -0.15002082 0.2585876 -0.55511
C -0.9011871 0.41685846 0.50294584
C -1.407028 -0.72581965 1.3444493
N 1.8586053 -0.08944278 -1.5749918
N 0.47130954 0.08700456 -1.6041269
N 2.462003 0.96535367 -1.7859293
H -1.168077 1.4369707 0.77425355
H -1.0354972 -1.6850073 0.970892
H 3.456758 0.70718485 -1.7896078
H -2.50093 -0.75501925 1.3307847
H -1.0859356 -0.61667085 2.3864408
