11

C -0.7942793 0.1517995 0.3702478
C 0.44503385 0.097613536 -0.37047336
C -1.9099433 0.7449967 -0.31849456
N -2.4534733 1.5309883 -1.0526606
C 1.6469399 -0.48382205 0.3493913
O 0.54075515 0.521473 -1.5155628
H 1.4749789 -0.6451756 1.4160908
H -2.3822317 -0.31179357 -0.26819363
H 1.8984134 -1.4374467 -0.12475548
H -0.9598477 -0.363093 1.3088213
H 2.493654 0.19445986 0.20558904
