11

O 2.012737 0.02176057 -1.5621096
C 1.0780822 0.15342227 -0.81784266
C 1.0167611 0.8066642 0.5176393
C -0.5300181 -1.5620068 -0.25619394
N -0.99360406 -0.11681695 0.08712667
C -0.19945966 0.6283568 1.0177195
N -0.23807184 -0.3482273 -1.1075591
H 1.864969 1.2800975 0.99186164
H -0.64253867 0.9176232 1.9599968
H -1.4361458 -1.9942099 -0.71843797
H -1.9327112 0.21333635 -0.1122006
