11

O -0.92098015 1.58703354 1.76773590
C 1.07552122 0.00184098 -0.56001796
C 0.88943302 1.05328250 0.22795957
C -0.36255497 0.84500487 1.00458294
N -0.85420447 -0.46594556 0.67665138
C -1.43083617 -0.46972748 -0.72005815
N 0.01047815 -0.93584419 -0.36410460
H 1.48306559 1.95514982 0.28009657
H 1.83860480 -0.22763422 -1.29003519
H -1.97929034 -1.42774379 -0.77427285
H 0.25076328 -1.91541661 -0.24853768
