10

O 1.37892849 1.35875001 1.14498871
C -0.43268585 0.77910041 -0.41060113
C 0.71513899 -0.93177715 0.72160381
N -0.19639860 -1.49261854 -0.00477917
N -0.98633916 -0.55485632 -0.57187697
C 0.68615258 0.53230564 0.59955967
H -1.39327443 -0.85127663 -1.44379832
H -0.00836753 1.17910087 -1.33919121
H 1.40304499 -1.50884112 1.32372280
H -1.16619952 1.49011264 -0.01962823
