11

C 0.27751297 -0.49158078 1.0471005
O -0.33404925 1.8642845 0.39316198
C 0.40257716 0.7877004 0.21099816
C -0.39007282 -0.42670467 -1.01322
O 0.026053121 -1.3716012 -0.042252883
H -0.58399296 -0.40885937 1.7219206
H -1.4782728 -0.47667384 -1.1975278
H -0.646788 0.92821264 -0.50518674
H 0.15518557 -0.51210403 -1.9574668
H 1.3964843 0.8900428 -0.26092592
H 1.1753627 -0.7827165 1.6033983
