11

C -1.3079432 0.10349686 -0.78335196
O 0.069068596 -0.014955716 -1.0829327
C 0.81907785 -0.5304419 -0.017678082
C 1.0236572 0.49371573 1.08568
O 1.2840713 0.20777631 2.2264209
H -1.7491082 -0.8737294 -0.538616
H -1.4864072 0.78975564 0.05786488
H -1.793626 0.5027609 -1.6750824
H 1.8082892 -0.7774567 -0.42212775
H 0.38685155 -1.4482486 0.4085431
H 0.94606876 1.5473267 0.7412805
