10

O 0.44224682 1.6908699 -1.0568333
C -0.35188222 -0.90608597 1.3301166
C 0.053194575 -0.7087041 -0.9835121
C 0.17853041 0.69871 -0.42846262
O -0.25558457 -1.5254085 0.1776491
C -0.092151776 0.55845934 1.0611068
H 0.98185205 -1.0689719 -1.4329132
H 0.75571215 0.9075276 1.6629013
H -0.7598736 -0.80674845 -1.7083719
H -0.9520439 1.160352 1.3783193
