10

O 0.49640548 -0.6897843 -1.9792039
C 0.80096364 -0.6213129 0.47774124
C 0.16595641 -0.36371574 -0.87472534
C -0.87387776 0.6377069 -0.3559336
O -0.29669738 -0.74122703 1.3489672
C -0.32357922 0.65367085 1.0936447
H 1.6569095 -1.2410185 0.7379038
H 1.1097586 0.5366657 0.77726233
H -0.8432866 1.5847503 -0.8967523
H -1.8925526 0.24426493 -0.3289037
