11

O 1.6168547 -1.1405543 0.22491217
C 0.018541805 0.6033992 -0.59576285
C 1.2732033 0.082997665 -0.05900522
O -1.0132345 -0.23721106 -0.54636025
C -0.989778 -0.7242803 0.7935423
N 0.028551621 1.8013177 -1.0531439
H -1.3586876 0.031823955 1.4844958
H 0.75313723 -1.5499591 0.48670223
H -1.5510094 -1.6621991 0.8349398
H -0.9076669 2.0526495 -1.3670324
H 2.1300876 0.7420159 -0.20328741
