11

O 1.8405975 0.7109241 0.20654754
C 0.039041143 -0.73879486 -0.5150323
C 1.4657222 -0.25124368 -0.4108754
O -0.98551553 -0.1252057 0.09077865
C -0.8335097 1.0665619 0.8740709
N -0.11303433 -1.7820151 -1.2233275
H 2.1473155 -0.90584725 -0.98595905
H -0.42969608 1.8856598 0.27479854
H -1.0950292 -2.059089 -1.2518662
H -1.8470427 1.3024384 1.2013124
H -0.1888486 0.89661103 1.7395523
