10

N 0.6436395 0.7014423 -1.0867543
C -0.62318015 -0.44371948 0.6747569
O -1.6284009 0.64438677 -1.1721935
C 1.7181149 -0.95871854 1.6637969
C -0.57888365 0.36142278 -0.6305469
N 0.6504954 -0.7386425 1.237675
H 1.490347 0.4462513 -0.6041439
H 0.6993029 1.2308792 -1.9438612
H -1.2155024 0.1312631 1.3931079
H -1.1559321 -1.3745648 0.46816322
