10

N -1.2270774 -0.7081725 -0.29383975
C -0.6277306 -0.00594665 0.69492203
O -1.1208065 0.20535797 1.7824925
C 0.76615363 0.5571439 0.3809741
C 1.3065313 0.19247355 -0.92749673
N 1.6821915 -0.124587126 -1.9721291
H -2.1424062 -1.0927006 -0.114794195
H -0.788514 -0.8838615 -1.1837584
H 0.7078837 1.6451674 0.46519294
H 1.4437749 0.21512562 1.1684366
