11

C -0.62779389 -0.24907210 -0.13612922
O -1.11193088 -0.00916292 -1.42394009
C 0.77331042 -0.85450473 0.05632421
C -0.06658226 0.91409042 0.70097691
O 1.11626556 0.16303782 1.00759182
H -1.41227580 -0.80872747 0.37727353
H 0.15583113 1.81182610 0.10323074
H -0.44753967 0.48776575 -1.91891739
H 1.39598808 -0.80253397 -0.85043767
H 0.84307400 -1.86159642 0.48326444
H -0.61834666 1.20887749 1.60076309
