11

C -1.3060875 0.10265263 -0.7837689
O 0.07085804 -0.014551975 -1.0825423
C 0.8160921 -0.5314707 -0.015609002
C 1.022619 0.4943322 1.0857121
O 1.2825484 0.21001177 2.2266061
H -1.7470593 -0.8752091 -0.5403266
H -1.4844543 0.7916792 0.05548753
H -1.7906575 0.50274175 -1.6753582
H 1.8058717 -0.7789843 -0.41703027
H 0.3807619 -1.4488001 0.4083764
H 0.9495075 1.5475986 0.7384535
