11

C -0.5099001 -0.21188952 0.4120655
O 1.4687259 0.3315701 -0.14414181
C 0.31364277 1.0794115 0.26050356
C 0.7038841 -0.87653506 -0.25998694
O -1.771541 -0.30583623 -0.17940566
H -0.64539915 -0.5156497 1.452055
H -0.055159617 1.7383574 -0.54104036
H 1.1788154 -1.7189391 0.25593388
H -1.7010864 -0.04411745 -1.1067113
H 0.5202065 -1.153018 -1.3099704
H 0.4978117 1.676646 1.1606987
