12

N -0.71018124 -0.99912284 0.92781113
C -0.63931814 -0.93370189 2.16987825
C 0.22149406 1.75053212 -0.16259300
C 1.06371451 0.58235742 -0.50692294
N 0.32654031 -0.50090842 -1.12226619
C -0.59287063 -1.18926066 -0.31916210
N -0.44449237 2.66264409 0.07362365
H -1.40237861 -0.24636116 2.57439027
H 1.84738286 0.90039500 -1.19943300
H 1.54700689 0.21404833 0.40261066
H -0.05186099 -0.26907104 -2.03064218
H -1.16503700 -1.97155073 -0.80729447
