12

N 0.5500348 -0.53078717 -1.0162411
C 0.81190854 1.5568652 0.23839891
C -1.6765319 -0.7413653 1.6212701
C -0.7727247 -0.8767538 -0.7084492
N 0.4344508 2.6358917 0.3949618
C 1.3018787 0.18081053 -0.0043629217
N -1.2874063 -0.71703476 0.43804505
H 0.6400984 -0.13430804 -1.941863
H 2.346756 0.22599506 -0.32223704
H -2.2738142 0.15556616 1.8602185
H -1.3336401 -1.3741144 -1.4930712
H 1.2589899 -0.38076505 0.93332994
