10

O -1.6279435 -0.6334862 -1.090764
C -0.36356696 -0.18855697 -0.3839859
C 1.5218155 -0.08495369 0.32778597
C 0.7716641 0.9604354 0.8361898
N 0.7331831 -0.8703546 -0.4909689
N -0.51879555 0.873169 0.3553443
H -2.2727666 0.029954288 -0.7691285
H 1.0597442 1.7635478 1.5015763
H -1.8666348 -1.5219157 -0.7721203
H 2.5633006 -0.32783931 0.48607126
