10

O 0.020819785 0.32430393 2.021363
C -0.024144718 0.119498834 0.6888114
C 0.8910569 -0.28538764 -0.25408775
C 0.14593238 -0.27854693 -1.4596522
N -1.1062391 0.09419859 -1.2787403
N -1.191621 0.33422694 0.04703198
H 0.9109587 0.1342103 2.3375788
H 1.9281771 -0.5454074 -0.10052563
H 0.48682696 -0.53552634 -2.454005
H -2.061767 0.63842976 0.45222592
