10

O -0.0022208102 0.58940595 -1.8580643
C -0.5981172 1.734285 1.3306279
C 0.56246984 -1.1413612 -0.39528713
N -0.43544453 0.90733397 0.38312116
N 0.74236757 -2.1496632 1.8018883
C 0.015156849 0.19336577 -0.5582517
N 0.656362 -1.675221 0.77625966
H -1.6548761 1.7120004 1.6550252
H 0.92654234 -1.7032464 -1.2428887
H -0.21223997 1.5331007 -1.8924304
