10

O 0.9910404 0.5080875 -1.797036
C 0.38378236 0.18260697 -0.65384084
C 1.1504087 -0.2801401 0.434686
N 0.56594974 -0.60553354 1.5673043
N -0.7612258 -0.4928354 1.6805513
C -1.4293251 -0.053897075 0.6261499
N -0.9232713 0.29907385 -0.56411624
H 0.30059186 0.8002378 -2.4131513
H 2.227927 -0.38305274 0.37685162
H -2.505878 0.02545284 0.7426013
