11

O -1.7094502 -0.44488582 0.17908935
C 0.087813176 1.0096151 -0.59030366
C 0.31154785 -1.077582 -0.13891761
C -0.68977123 0.24345668 0.5407741
C 0.8278543 -0.24638818 -1.0055459
N -0.08363426 0.22254378 1.7229968
H 0.18875597 -2.0601387 0.27988082
H 0.7449574 1.7816496 -0.18856762
H 1.569421 -0.43848386 -1.7712901
H -0.59197116 1.3899993 -1.3544241
H -0.6555229 -0.37978572 2.326308
