11

O -0.8241233 0.10182499 -1.0632771
C 0.56358737 -0.266907 0.8069692
C 0.6233799 1.1594734 0.33429387
C -0.41386175 -0.8788227 -0.17832772
C -0.18333535 1.2737458 -0.7146563
N -0.8054872 -2.0751934 -0.21696037
H -0.42550075 2.1205473 -1.3435173
H 1.524571 -0.7881412 0.7555366
H 1.2176931 1.9490966 0.7689067
H -1.4632497 -2.2211607 -0.978519
H 0.18632686 -0.3744631 1.8295518
