11

O -2.0442665 1.2638407 0.21561727
C 0.3529022 0.92096823 0.5610824
N 1.1299347 -0.274029 0.2808619
C 0.34984782 -1.1350511 -0.44698316
C -1.0663402 0.56314415 0.07735567
C -0.94140595 -0.74581176 -0.558115
H 2.1144822 -0.20723115 0.07612126
H 0.72126883 1.7902546 0.0047917115
H 0.3426102 1.1634678 1.626613
H 0.7977595 -2.0461128 -0.82873744
H -1.7567928 -1.2934399 -1.0086077
