11

O 1.7499539 -0.9186835 -1.8339342
C 0.73072624 -0.2679142 -1.9180744
N -0.034877695 0.08423219 -0.85402876
C 0.33951387 -0.32344803 0.49033222
C -0.5775464 0.25116473 1.4716078
C -1.3396701 0.7254142 2.2682238
H 0.32411617 0.10375447 -2.8763232
H -0.87757725 0.61979765 -0.98994887
H 0.33043405 -1.4177948 0.56056416
H 1.3655097 0.00020249691 0.69665426
H -2.0105827 1.1432747 2.984927
