11

N 1.74933319 -0.76620032 0.18033746
C -0.72170824 -0.93242556 -0.10167094
C 0.52744705 -0.18342575 0.04273222
N 0.39172754 1.10984742 -0.01024832
C -1.78407602 -0.10722975 -0.26714400
N -1.04105863 1.23241212 -0.21177999
H -0.76214331 -2.01652908 -0.08318102
H -1.43312372 1.80156074 0.53869921
H 1.77162215 -1.70877087 0.53336553
H 2.51232227 -0.17054509 0.45899284
H -1.21034195 1.74130598 -1.08010282
