10

O 1.8335696 -0.15902439 0.77399755
C 1.1359648 -0.81066793 0.03019668
C -0.118550114 -0.26868123 -0.5602594
C -1.0595053 0.38776523 0.39721426
N -0.29469702 1.1798283 -0.53852177
H 1.3989375 -1.8503767 -0.24909371
H -0.5110964 -0.7850085 -1.4323921
H -2.1267653 0.32547778 0.19656694
H -0.76851475 0.39642966 1.4449371
H 0.51065683 1.5842577 -0.06264558
