9

O -0.33697059 -1.05918904 -1.65114134
C -0.06978515 -0.38987792 -0.52590606
N 0.78843822 -0.69423006 0.41628171
N -0.71588063 0.75169162 -0.24401908
N -0.27301602 1.24296757 0.94703773
C 0.61867400 0.34087996 1.28974513
H 0.23147767 -1.84279138 -1.66102525
H -1.42313190 1.22779856 -0.78054761
H 1.18019442 0.42275081 2.20957469
