10

N -0.48974305 -0.1462264 0.10839422
C -1.5068017 0.6561159 0.33461758
O 1.143309 1.4535817 -0.19151568
N 1.675332 -0.7598699 -0.31605685
C 0.82233214 0.28346336 -0.14617646
O -2.535427 -0.061531637 0.53691614
H -1.5589591 -0.9200797 0.32232365
H -1.4990802 1.7439594 0.35419858
H 1.3315083 -1.7017487 -0.40402704
H 2.61753 -0.547664 -0.5986742
