11

C -1.41658024 0.48987899 0.86942537
N -0.32053126 0.37960726 -0.06913092
C 0.62114119 -0.58042892 0.00198174
O 0.70857033 -1.46378842 0.83449459
C 1.65738418 -0.48211346 -1.11715885
O 1.62493883 0.36787921 -1.96857629
H -0.22934915 1.03027425 -0.83692507
H -1.31282464 -0.31164357 1.60336430
H -1.38744140 1.45493307 1.38684390
H 2.43208717 -1.26915093 -1.06154418
H -2.37739485 0.38455258 0.35722558
