11

C -0.27020838 0.85401676 -1.31363259
C -0.04284040 -0.15756329 -0.23949853
O -0.25769124 -1.43739970 -0.64236290
C 0.35138974 0.11868441 1.00179541
O 0.61170817 -0.95967304 1.84980153
H -0.11708687 1.86505314 -0.93000767
H 0.41979051 0.68268965 -2.14688031
H -1.28953512 0.77097695 -1.70458855
H 0.07907081 -0.85477232 2.64671123
H 0.56631780 1.11916145 1.35846131
H -0.05091494 -2.00117420 0.12020140
