11

C -0.4103149 0.9176847 -1.1531224
C -0.0742192 -0.33203045 -0.37772566
O -0.055064667 -1.4366028 -0.8792748
C 0.27798584 -0.18533206 1.093008
O 0.6529237 -1.4034454 1.6526012
H 0.51808447 1.3376778 -1.5580778
H -0.87015206 1.6818563 -0.5167477
H -1.0674939 0.6773901 -1.9917338
H -0.6003193 0.24018662 1.6062989
H 1.0831988 0.5607326 1.1834044
H 0.5453713 -2.0581176 0.94137
