9

N -0.40417090 0.04035236 -1.69783010
C 0.12584560 -0.01867236 -0.46892589
N -0.60802688 0.07206052 0.59151704
C 0.10147359 -0.01798621 1.78576334
O -0.40941003 0.04264837 2.87765451
H 0.17063171 0.00502036 -2.52251362
H 1.21472860 -0.15128384 -0.44577250
H 1.20554454 -0.15246153 1.67773815
H -1.39661586 0.18032232 -1.79763111
