9

N -0.10169326 0.22401315 0.53105766
C 0.39620706 1.5042716 0.6176008
N -0.58569056 -1.6408974 -0.2821605
C -0.0032769097 -0.5203326 -0.57395244
O 0.3309074 2.2131572 1.5925193
H 0.884774 1.8389881 -0.32604614
H -0.6718384 -2.422424 -0.9131259
H -0.72255915 -0.9702756 0.8613904
H 0.47316977 -0.22650072 -1.5072832
