9

N 1.2677324 -0.15657502 -1.5614235
C 0.21938084 -0.023079304 -0.8627726
N 0.292885 -0.037474528 0.5209789
C -0.78509617 0.09364879 1.3641121
O -0.7082955 0.07498608 2.5669262
H 1.0469134 -0.12733659 -2.5506368
H -0.8030707 0.11096668 -1.2333988
H 1.2083101 -0.15501574 0.93797076
H -1.738759 0.21987961 0.81824356
