9

O -0.6225072 -1.4856951 -1.2077725
C 0.63042724 0.5775736 -0.7339523
N 0.7870168 1.322608 0.35469162
N -0.5593002 -0.40430474 0.87606716
N 0.06809506 0.70121026 1.2648224
C -0.21189944 -0.49840847 -0.39703646
H 1.101154 0.8242002 -1.6730783
H -0.005542034 1.0411443 2.2097201
H -1.1874443 -2.078328 -0.69346184
