9

O 0.18250017 0.36092907 -1.9488295
C -0.69478476 -0.7399445 0.045223963
N 0.947867 0.7582519 0.2316134
N 0.7270339 0.23677453 1.4211909
N -0.31922933 -0.718381 1.3313103
C 0.14559461 0.13695905 -0.6334229
H 0.8831457 1.0075997 -2.115418
H -1.4919508 -1.3690152 -0.32034162
H -0.38017666 0.3268265 1.9886739
