9

O 1.6786157 0.9290238 0.60600114
C 0.56345105 0.30714 0.19387694
N 0.43094373 -0.2467116 -0.9999268
N -0.8080691 -0.7257127 -0.956953
N -1.480049 -0.52933484 0.15702714
C -0.6257121 0.13637677 0.9264902
H 2.3232193 0.8916571 -0.11273436
H -1.2062869 -1.217437 -1.7398968
H -0.87611294 0.45499855 1.9261153
