11

O 0.68088984 1.4344014 -0.6844333
N -0.63408744 -1.3441299 0.6444702
C -0.10484696 -0.28628024 0.12961842
C -0.6690248 0.95582545 -0.46695784
O -1.8725717 -1.5863999 0.7562962
C 1.2735921 0.25179085 -0.114112586
H -1.2197741 0.8380231 -1.407213
H -1.2340932 1.6068476 0.21080641
H 0.016665516 -2.0600874 0.9966193
H 1.8912559 -0.28841797 -0.8423048
H 1.8719947 0.47842708 0.7772109
