11

O -1.2737929 -0.17814828 1.9310846
N -1.1667578 -0.768325 0.67270124
C -0.23806389 -0.23284546 0.008229502
C 0.29578117 -0.46611154 -1.3772182
O 1.2568289 0.5877043 -1.1734663
C 0.79150426 0.855814 0.16373345
H -2.0051532 -0.6648131 2.3294823
H -0.39340615 -0.24472038 -2.2004411
H 0.7741396 -1.4360595 -1.5489147
H 1.5619466 0.6754181 0.9219513
H 0.3969732 1.872087 0.27285767
