11

O -2.31681325 -0.01135746 1.10789023
N -1.11636313 -0.41614871 1.09756436
C -0.21156717 -0.10541110 0.23211641
C -0.20194771 0.77172964 -0.97102864
O 1.19536082 0.44395139 -1.16772727
C 1.23575040 -0.41382864 -0.01113249
H -0.83195444 -1.05716693 1.85141506
H -0.82260691 0.44842494 -1.81455587
H 1.48027212 -1.44949824 -0.27795762
H 1.94379403 -0.05361915 0.74572321
H -0.35392498 1.84292440 -0.79230763
