11

O -2.0446277 -0.81440234 1.2686797
N -0.6802388 -0.9232745 1.0226647
C -0.4210399 0.90501326 -0.72330165
C 1.3730528 -0.084256336 -0.26967138
O 0.95944047 0.9802948 -1.1461601
C -0.047747307 -0.20351997 0.21083859
H -1.1379365 -1.6135602 1.7662987
H 1.7625636 -0.9473338 -0.8202255
H -0.768099 1.8294661 -0.24612887
H 2.104711 0.24666458 0.47491598
H -1.1000786 0.6249083 -1.5379101
