11

O -1.273777 -0.17862453 1.9319773
N -1.16767 -0.76685107 0.6691114
C -0.23909707 -0.2289107 0.0064313435
C 0.29588798 -0.46690133 -1.3778626
O 1.2559767 0.58823043 -1.172467
C 0.7913943 0.85870075 0.1647188
H -2.0030894 -0.67013246 2.3274405
H -0.39443737 -0.24858467 -2.200252
H 0.776027 -1.4369287 -1.5461766
H 1.5622982 0.6750645 0.92189497
H 0.3964865 1.874938 0.27518386
