11

O -0.7797885 -0.21514677 1.0632223
N 0.6481855 0.7796332 -0.38766992
C 0.22848383 0.77837956 0.99321467
C 0.16118047 -0.2848746 -1.0872214
O 0.41406757 -0.59249514 -2.2298548
C -0.7598425 -1.0033433 -0.11041451
H 1.3670539 1.3765497 -0.767711
H -1.7714875 -1.0941454 -0.51976657
H 1.0645491 0.52810603 1.6645013
H -0.37295967 -2.011813 0.0848889
H -0.1994421 1.7391496 1.296811
