10

O 0.66756850 -1.30191842 -1.08820344
C 0.44031716 2.09122356 -0.52616676
N -0.64589505 0.31872872 0.90933967
C 0.05015187 -1.77543082 -0.16341481
C -0.07129364 1.09976764 0.14689769
N -0.57913281 -1.04687631 0.81232386
H 1.41791218 2.47824711 -0.26415386
H -0.09511479 2.50625775 -1.37221215
H -0.07979457 -2.85594813 0.01081462
H -1.10471860 -1.51405125 1.53477504
