10

O 1.6644638 -0.1301589 -1.446767
C 1.1614627 0.7878412 -0.844038
N 0.27619576 0.6463177 0.18754135
C -0.2141639 -0.658724 0.57489055
C -1.6495041 -0.813295 0.28440145
N -2.780721 -0.9138442 0.074472934
H 1.3847374 1.8500444 -1.0573862
H -0.15318835 1.4715466 0.5830917
H 0.35740644 -1.3945922 0.0029946642
H -0.046688505 -0.84513575 1.6407984
