12

C 0.9349604 -0.6614047 1.3098844
C -0.13048346 1.2405266 0.2037112
N 0.19841938 -0.0051603285 0.25237143
C -0.84961164 -0.27111635 -1.53837
O -0.8036827 1.6113931 -0.79839134
H 1.2441287 0.047153853 2.0886977
H 1.8361372 -1.1390905 0.9085934
H -0.15223552 -1.0946659 -1.6562859
H -1.7913182 -0.55612504 -1.0841073
H -0.95743394 0.31124464 -2.4482276
H 0.32134408 -1.4412138 1.7778598
H 0.14977568 1.9584584 0.9842645
