12

C -0.797063 -0.064157076 -0.04152516
C 0.27973425 0.7150036 -1.9648081
N 0.3120598 -0.1667274 0.5502296
C 0.286098 -0.64524376 1.9205048
O -0.933768 0.35845202 -1.3061291
H -0.01618661 1.0240803 -2.9692667
H 0.89030147 -1.5556176 1.9946679
H -1.7796485 -0.3009099 0.38308424
H 0.9610938 -0.14070943 -2.0029104
H 0.74730766 0.104371585 2.5714576
H 0.7739433 1.5349977 -1.4345303
H -0.72387207 -0.8635401 2.2992256
