12

C -0.35207543 -1.1043231 0.97928
C -0.25893027 -0.6285374 -0.46859846
N -0.26332146 0.82172966 -0.5815471
C 0.87880176 1.548919 -0.49363568
O 1.9961841 1.0782453 -0.41090062
H -0.34998873 -2.1974251 1.0255467
H -1.2719375 -0.74449337 1.4547198
H 0.5044783 -0.7298918 1.5490775
H -1.0953591 -1.0145205 -1.0613319
H 0.6703236 -0.98320603 -0.9240698
H -1.1426189 1.314542 -0.54175305
H 0.6844434 2.6389616 -0.52678764
