9

O -0.90388983 0.9164596 -0.2432114
C -1.0985391 -0.08596229 0.8307776
N 0.042869568 -0.82074654 0.91639197
C 0.9249829 -0.30828333 -0.14996715
C 0.28976548 0.7659713 -0.7477426
O -2.134788 -0.09554344 1.4240924
H 0.28134978 -1.2856348 -0.37975675
H 0.6155099 1.4468511 -1.5236843
H 1.9827391 -0.5331119 -0.12689963
