9

O -0.6033225 -0.6184553 0.38050076
C -0.4471214 0.6432556 -0.16511129
C 0.39005995 0.7349172 -1.3494446
N -1.0780448 1.6552672 0.23102091
C 0.51968074 -1.3611032 0.6399631
N 1.0157325 0.8297454 -2.3173337
O 1.6413072 -0.9649694 0.5500182
H -1.6341602 1.4357163 1.0560004
H 0.1958687 -2.3543737 0.9743862
