9

O -2.5754585 0.6749201 0.29487836
C -1.6303191 0.09948976 0.76404864
C -0.30038324 0.046043716 0.09435151
N 0.7617699 -0.54995877 0.54261845
C 1.6598037 -0.28064814 -0.45546645
N 1.1845362 0.42496368 -1.4407952
O -0.1292696 0.647647 -1.078639
H -1.6581031 -0.44401136 1.724982
H 2.6874235 -0.61844605 -0.44597855
