9

O -0.32449588 0.65514898 0.59728392
C -0.60847677 1.36800721 -0.53901307
C 0.16048037 -0.63350456 0.46246628
N -0.24516775 -1.60465807 1.14909791
C 1.29720315 -0.80537004 -0.42649009
N 2.22825873 -0.96364249 -1.09383797
O -0.59044280 0.92893033 -1.64804159
H -1.03192997 -1.33043682 1.73549881
H -0.88542932 2.38552539 -0.23696443
