9

O -1.2384894 1.9856232 -0.73979175
C 0.7513812 0.6046827 -1.219659
C 0.09513004 -1.0341724 0.27240768
N -0.01523862 -2.2861428 0.36284986
C -0.1843421 1.7028319 -0.32486382
N 0.7719117 -0.5696368 -1.0089244
O -0.19152953 -0.004135028 0.9657097
H 0.46992418 2.121415 0.44265315
H -0.45874745 -2.5204654 1.2496185
