10

O 0.091724336 1.1826191 0.70050675
C 0.5182942 -0.13607743 0.5518729
C -0.8238363 0.21569669 0.10500298
O 1.1474422 -0.7635648 1.5563121
C -0.27760428 -0.021532083 -1.2926943
O 1.0239899 -0.36708528 -0.7263959
H -0.20501882 0.8489735 -1.9484237
H 1.064125 -0.22060668 2.3501108
H -0.7137364 -0.8830918 -1.8032001
H -1.8253797 0.14466889 0.50690866
