10

O 1.39660924 -1.19798982 0.96750459
C 0.57716066 -0.28974565 0.41790270
C -0.36942613 0.59497913 -1.12165527
O 1.01570841 0.28993796 -0.77151173
C -0.83932648 -0.05016384 0.17108941
O -0.09090801 0.63462150 1.21930400
H 1.26984923 -1.17842946 1.92427569
H -1.77140548 -0.52951754 0.43775598
H -0.66389793 0.05464643 -2.02411827
H -0.52436339 1.67166131 -1.22054708
