11

N 1.0362072 -0.019563906 -1.5517929
C 0.2804775 -0.026293207 -0.37444538
C -0.37615538 0.969863 0.31953186
C -0.87515694 0.31765208 1.4714574
N -0.572547 -0.966419 1.4971097
N 0.13510159 -1.1549172 0.35966942
H 1.0283141 0.8931993 -1.9876925
H 0.7336509 -0.7118109 -2.2261972
H -0.48245022 2.0059774 0.033921823
H -1.4554874 0.7473495 2.2778404
H 0.54804575 -2.0550373 0.18059744
