11

N 0.67341274 -0.507147 -1.3668442
C -0.2202951 -0.2346678 -0.48401937
C 0.12674597 0.027683793 0.89777017
C 1.4037006 0.52397287 1.318095
N 2.3057098 0.25668785 0.4837975
N -1.6039557 -0.2149678 -0.6987498
H -2.1221344 0.484697 -0.19098845
H 0.26226068 -0.50172806 -2.3038259
H -1.8873968 -0.2910584 -1.664259
H -0.5190953 -0.40388608 1.6599278
H 1.5810479 0.8604137 2.349096
