12

N 1.38956962 -1.24644142 -0.61255671
C -0.08419953 -0.00732438 1.14504367
C 0.40363243 -0.39200536 -0.12485128
N 0.39586653 1.08573647 0.24185331
C -0.82037123 1.57523184 -0.35500778
N -1.74180956 0.70770820 -0.46608526
C -1.08982063 -0.45851110 0.10910004
H 2.21411141 -1.26250966 -0.02640972
H 0.18392185 -0.17825177 2.17908687
H 1.64887667 -1.02774477 -1.56841124
H -0.88247355 2.60844899 -0.68092915
H -1.61730368 -1.40433718 0.15916727
