11

O -1.1474408 -0.29727992 1.4773904
C 0.19726825 -0.7225319 1.115681
C 0.14092186 0.21835667 -0.07589158
C -1.2088768 0.6301573 0.4696643
O -2.083888 1.3976275 0.22722425
C 0.591394 0.116653025 -1.4594012
O 1.1326537 1.0746844 -0.55633104
H -0.026476597 0.5232808 -2.2571545
H 0.9158064 -0.4510029 1.8909172
H 1.2615995 -0.69738376 -1.732621
H 0.22703867 -1.7925613 0.90052223
