13

C -0.27067724 -0.6053941 -0.98595536
C 0.0964026 0.33471146 0.14655337
N 0.8669281 0.0047491975 1.1087203
O 1.324872 -1.314871 0.9765399
C -0.47330546 1.7188913 0.16994022
O -0.89389026 -1.7880198 -0.54335064
H -0.98841006 -0.103947565 -1.6451533
H 0.6332434 -0.8122165 -1.5787601
H -0.08725613 2.2761467 1.0253534
H -1.5660803 1.675005 0.23148155
H -0.26861638 -2.2022958 0.06726621
H 1.8462912 -1.4380716 1.7791785
H -0.21950136 2.255313 -0.75181425
