13

C -0.5483664 0.024483994 1.705175
C 0.02793924 0.17141426 0.32891425
N 1.1387541 0.788641 0.23779327
O 1.5589672 0.8807981 -1.1040798
C -0.7174144 -0.41447163 -0.85632664
O 0.059571702 -1.312093 -1.6106771
H 0.080719665 0.52717376 2.4423075
H -1.5578706 0.4491151 1.748052
H -0.6301282 -1.0355306 1.9678998
H 2.418302 1.3093446 -1.026716
H -1.1012365 0.41315243 -1.4714427
H -1.5819769 -0.9815959 -0.49306095
H 0.85273904 -0.8204321 -1.8678383
