12

C 0.5590817 -0.6479621 -1.8478246
C -0.08326852 -0.74246955 -0.4796527
O -0.61028045 -1.7468823 -0.05788342
N 0.0081920745 0.41999704 0.27085882
C -0.47100517 0.54096365 1.5594523
N -0.34229237 1.6413118 2.1792116
H 0.13381535 -1.4256313 -2.482012
H 0.3996278 0.33215657 -2.307868
H 1.6387883 -0.8180675 -1.7593561
H 0.44758573 1.2451459 -0.11740391
H -0.9379698 -0.3737856 1.9327607
H -0.7422748 1.5752236 3.1097176
