12

C 0.8852822 1.1403061 0.15952688
C -0.6759217 -0.5296662 -1.0504726
O -1.0835427 -1.8515369 -0.8086418
N 1.2761754 2.2055805 -0.26984477
C 0.60008484 -0.18748052 -0.3790681
N 0.34597668 0.62410665 1.4958985
H -0.48351485 -0.44038308 -2.1290977
H -1.4442753 0.21301913 -0.79979426
H -1.3466437 -1.9169493 0.118768975
H 1.3621117 -0.9701508 -0.3945117
H -0.48139676 1.129835 1.8240274
H 1.0456641 0.58331925 2.2332091
