12

C -0.07936894 1.27424374 -1.20055815
C 0.50038185 -1.00788139 -0.38984580
O 0.15775273 -1.97549344 0.55982142
N 0.21410294 2.12355983 -1.92635976
C -0.41700718 0.21515699 -0.22618611
N -0.32981147 0.65659498 1.15977830
H -1.44845670 -0.10832405 -0.40481847
H 1.54767054 -0.68034643 -0.28917827
H 0.37936098 -1.44675123 -1.38289125
H 0.54772610 1.14025743 1.32375370
H 0.00447143 -1.49230034 1.38436664
H -1.07682244 1.30128414 1.39211804
