11

N -0.9232445 0.6164991 -0.6539421
C 0.3363405 0.23882449 -0.37436345
C -0.9420774 -0.64255637 1.1888069
C 0.3850609 -0.49904764 0.81404626
N 1.3678699 0.5607757 -1.240696
N -1.7677636 0.030514171 0.37583637
H -1.3510023 -1.1921773 2.0271423
H 2.269153 0.6542492 -0.79566216
H 1.2631339 -0.8793584 1.3191698
H -1.7890053 -0.23636836 -0.8275675
H 1.1515352 1.3486453 -1.8327702
