14

C 0.91038346 0.34560236 -2.197864
N 1.3763815 0.65741545 -0.19662447
C 0.24526738 0.0929319 0.10242083
O -0.48030442 -0.23576578 -0.8860144
N -0.17623262 -0.19225773 1.3781148
C -1.5379838 -0.62209845 1.6097652
H 1.3682251 -0.6274382 -2.3109066
H -1.6051717 -1.1046557 2.5881724
H -2.2575178 0.20539245 1.5688733
H 1.59897 1.173821 -2.3226058
H -1.8078544 -1.3485789 0.8403883
H 0.26643917 0.33306333 2.1137273
H 0.006180399 0.47944108 -2.783404
H 2.0932178 0.84312725 0.49595731
