14

C 2.1237128 -0.1665162 -1.1956242
N 1.1201963 -0.54153436 -0.21540248
C -0.033538036 0.20721123 -0.11713609
O -0.1890954 1.2730837 -0.6862983
N -1.0003966 -0.37015456 0.6857884
C -2.1566029 0.42547068 1.0624343
H 1.8441118 -0.44834757 -2.2184167
H 3.0697773 -0.64855236 -0.93815786
H 2.2545183 0.9155362 -1.1647863
H 1.0188763 -1.5342804 -0.05653962
H -0.65826696 -0.9930659 1.4040215
H -2.9272976 -0.23529562 1.4658293
H -1.9204422 1.1990099 1.804113
H -2.5455537 0.9174355 0.17017563
