12

N -1.05891766 1.05662099 1.21499063
C -0.19917524 0.13364000 1.40863086
C -1.06809805 1.15015591 -0.23987278
N -0.83717393 -0.18049956 -0.86114773
C 0.23824058 0.80654967 -0.84602445
N 1.21441497 -1.43902738 -0.04495195
C 0.32160155 -0.35192899 0.08690190
H 0.80913263 -2.29204124 0.32533914
H 0.11843500 -0.20062884 2.39024821
H -1.80806250 1.79082560 -0.70973146
H 0.81272164 1.12307393 -1.71091013
H 1.45688103 -1.59674001 -1.01347227
