12

N 1.3951209 1.4147509 0.43064803
C 0.48312733 0.49821177 0.1736839
C -0.7734105 0.15869947 0.6585278
N -1.4314489 0.2377655 -0.64559424
C -1.1870725 -0.91448444 -1.2762023
N -0.25377402 -1.7297599 -0.81078607
C 0.30321208 -1.0112549 0.2135276
H -1.2771182 0.36931497 1.6006076
H 1.1730047 2.2317445 0.9853337
H -1.7368879 -1.1584901 -2.1812947
H 2.2924285 1.396342 -0.033336177
H 1.0128183 -1.4928402 0.88488466
