12

N -0.45401597 -0.45410076 1.9145775
C -0.1380147 -0.13323933 0.60148364
C -0.9264638 0.7220855 -0.17455706
N -0.59655017 1.0824986 -1.4120419
C 0.5366097 0.5804289 -1.8941166
N 1.3642595 -0.24859846 -1.2590942
C 1.0206362 -0.5971976 -0.022508413
H -1.428418 -0.37856075 2.1630127
H -0.034851696 -1.3033308 2.264983
H -1.8545743 1.1316047 0.22210658
H 0.81469166 0.87336046 -2.9023256
H 1.6966916 -1.2749504 0.49848032
