11

O -1.67058978 -0.71528198 -0.27285725
C 0.20905811 1.83113497 1.31810308
C -0.65407417 -0.12484846 0.00834428
N -0.72845176 1.01570549 0.86087423
C 0.69088854 -0.55936165 -0.51626784
O 0.56087063 -1.67515142 -1.34029009
H 1.14635779 0.27364290 -1.07380372
H 1.35083261 -0.78096318 0.33800420
H -1.69522394 1.17917488 1.13479512
H 1.16963022 1.46905895 0.89832399
H -0.37929761 -1.91311036 -1.35522585
