10

O -0.057762377 -0.25317568 1.9580467
C 0.42790076 -0.42517602 -1.4315538
C -0.395705 -0.204068 0.61409456
C 0.10321722 -1.231278 -0.33504644
N -0.045074627 1.098886 -0.01189199
N 0.3311429 0.917392 -1.2248024
H 0.80225456 -0.740729 -2.3979213
H -1.4941456 -0.2591228 0.4858954
H -0.29633442 2.0278623 0.29871678
H 0.6245066 -0.9305909 2.0444627
