10

O 0.15607145 -0.28953082 1.94761260
C -0.06991853 -0.46976249 0.59141600
C 1.06320716 -0.61742780 -0.35683161
C 0.60654550 0.16895598 -1.42013255
N -0.54226475 0.86270509 -1.18873613
N -0.91892857 0.60431265 0.01000866
H 1.10349044 -0.13496003 2.04937312
H -0.66457265 -1.38671766 0.41360285
H 1.08902725 0.33574206 -2.37562946
H -1.82265745 0.92668324 0.32931660
