13

C 1.03295521 -0.64684813 0.70244714
C -0.52447631 0.41762093 -1.06703163
O -1.49812357 0.90307672 -0.14477692
C 0.83556447 0.39792972 -0.38951061
O 2.11046207 -1.17987694 0.89104083
N -0.07303960 -0.91865040 1.43905761
H 1.61705425 0.22701220 -1.13329607
H -0.78879822 -0.59283228 -1.41184707
H 0.02562528 -1.53645429 2.22973782
H -0.47916718 1.07528773 -1.94456026
H -0.90455028 -0.35586478 1.32612232
H -2.36839379 0.82370467 -0.55088944
H 1.01488774 1.38589486 0.05350611
