11

N -0.79980403 -0.5197283 -2.296897
C -0.8921229 0.5989883 -0.024157824
C 1.1370575 -0.44779414 -0.09581566
C 0.11865555 -0.18973891 0.99395907
C -0.34880537 -0.17219998 -1.2483166
O 0.29539642 0.6908626 1.8936502
H -1.9627776 0.5035182 0.18479809
H 1.694859 -1.3829854 -0.15523054
H 1.7111884 0.4374811 -0.37563637
H -0.3824991 -1.1571116 1.2247111
H -0.5711479 1.6387079 -0.10106455
