11

N 2.7844298 0.9747803 1.0421665
C -0.81097883 -0.72536844 -1.4907036
C -0.46184862 0.1406497 0.82400864
C -0.34353012 0.20846191 -0.6685711
C 1.8230393 0.35412112 1.210587
O 0.7724089 -0.35356513 1.4388636
H 0.15741272 1.0876133 -1.071108
H -0.66592336 1.1248288 1.261513
H -1.3505147 -1.5968089 -1.1282101
H -0.6833156 -0.6449093 -2.5673974
H -1.2211794 -0.5698038 1.1488508
