11

C -0.08623825 -2.0280678 -0.29266858
N -0.22748147 -1.6122614 1.0789131
C -0.021726478 1.4612018 -0.7299276
N 0.017710019 0.11208762 -0.19538905
C -0.09008047 -0.2762022 1.0660841
N 0.09071787 -0.9445893 -1.0455693
H 0.5412114 -2.476061 0.8040882
H 0.7787393 1.561175 -1.4618752
H -0.13307203 0.40173456 1.9081266
H -0.985149 1.6251682 -1.2151409
H 0.115369074 2.1758146 0.08335869
