11

C 0.14499912 0.92015043 -0.41846283
N -0.02973337 -0.27323851 0.10699349
C 0.60510901 -1.52880590 -0.23409943
N -0.96125099 -0.23105573 1.12069656
C -1.40344900 1.02432359 1.24559560
N -0.67617952 1.72661742 0.25882068
H 0.81609975 1.16922207 -1.22787105
H -0.77215307 2.71582606 0.09014758
H 1.31972604 -1.36867361 -1.04400341
H 1.11789898 -1.91440598 0.64753152
H -0.16106714 -2.23995999 -0.54534873
