12

O -1.332094 -0.5477263 2.23431
C -1.1822189 -0.38981023 0.8472937
C 1.1772187 0.52466387 -1.4548973
N 0.39920515 1.5064358 -1.2942382
N 0.92387414 -0.71452725 -0.79615766
C 0.22130667 -0.55184776 0.39719704
N 1.4176648 -0.6924445 0.73650056
H -1.4862343 0.6320829 0.60105115
H 2.0474198 0.46811068 -2.115968
H -1.0607253 -1.4415387 2.474279
H 0.67809874 2.2884467 -1.886105
H -1.8035158 -1.081845 0.25673538
