12

O -2.01811239 -1.07333516 1.35712686
C 1.46545508 1.00309052 -0.78999574
C 0.14863327 -0.34141318 0.61042872
N 0.42578408 1.44431597 -1.35514781
N 1.40389090 -0.16158965 0.03064180
C -1.17071127 -0.91371044 0.24913519
N 0.85458080 0.17191371 1.50725684
H -1.65512480 -0.20793516 -0.43244468
H 0.65106822 2.23430022 -1.95913534
H 2.48748584 1.38083475 -0.89111503
H -0.98812272 -1.84959051 -0.30265372
H -1.60482699 -1.68688107 1.97590250
