12

O 0.40605718 1.1763748 -2.169366
C 0.75396514 1.2897521 -0.81306577
C 0.21067251 0.16849871 0.01789337
N -0.74871975 -0.6165695 -0.43236214
N -0.9810833 -1.4204327 0.62561244
C -0.16445495 -1.0929847 1.643525
N 0.60478586 -0.08613502 1.2972966
H -0.48408017 0.8060228 -2.2077293
H 0.40336305 2.2393088 -0.37618202
H 1.8465844 1.2890186 -0.7490317
H -1.6787373 -2.1448443 0.56926143
H -0.16835262 -1.6080096 2.5941477
