12

O -1.79739 -1.0415349 1.1665474
C -0.4862678 -0.8801855 1.6164428
C 0.33832186 1.0020503 -1.4906921
N 1.4960506 0.727099 -1.943898
N 1.577414 -0.50477475 0.18418902
C 0.3889441 -0.34155947 0.5159698
N -0.12344814 0.6851708 -0.26427177
H -0.09376944 -1.8518062 1.9327857
H -2.0730817 -0.20725098 0.77431005
H -0.41435468 1.5762157 -2.0400894
H -0.413967 -0.1787296 2.4609718
H 1.601548 1.0153055 -2.9122658
