10

C -0.18171013 -1.21819694 1.31094304
C 0.15492871 1.22723050 -1.33928694
O -0.32888009 0.22238333 -0.42965186
C 0.52168923 -0.17796102 0.47855055
H 0.06081468 0.82772158 -2.35170796
H -1.20719683 -1.45227320 1.00312438
H -0.48176653 2.10932174 -1.22565015
H 0.43716233 -2.12417108 1.30048057
H 1.19451001 1.45477060 -1.09784121
H -0.16955117 -0.86882541 2.35103951
