9

O -0.14672342 1.261283 -0.45061934
C -0.35147706 -1.0850785 -0.83301014
N 0.19627568 -0.72260517 0.55141485
C -0.5070733 0.14386621 -1.3207433
C 0.28039515 0.7826189 0.6823836
O 0.6722842 1.3476242 1.6588427
H -0.8656231 0.504806 -2.2731588
H -0.4006236 -1.1012894 1.2897191
H 1.1225655 -1.1312256 0.69517106
