11

N 1.04857269 0.92657775 1.50064080
C 0.16731168 0.35992387 0.75515124
C -1.13743078 -0.04833629 0.66892736
O -1.44233703 -0.64461684 -0.60315644
C -0.40267947 -0.67876835 -1.37825677
O -0.25748592 -1.09024715 -2.48930836
N 0.73603250 -0.05819490 -0.59943325
H 0.64156628 1.20927648 2.38778460
H 1.11945808 0.74993288 -1.09648375
H -1.97396575 0.00294625 1.34121403
H 1.50095794 -0.72849380 -0.48707952
