10

N 0.94800789 -1.56837933 0.74341948
C 0.34931112 -0.34895789 0.78857832
O 0.23958391 0.32379673 1.79211075
N -0.11371487 0.01949539 -0.50547057
C -0.66285093 1.16404367 -0.55225433
O -1.14244254 1.66628762 -1.68554367
H -0.79371871 1.83107121 0.29761183
H 1.25250557 -1.98581068 1.60546880
H 0.90526977 -2.10903781 -0.10441066
H -0.98195105 1.00749093 -2.37950993
