11

O -0.9582094 1.8712766 0.7375479
C 0.34415454 0.12446257 1.0418153
C -0.5154833 0.1744374 -1.0777339
N 0.868694 -0.028036587 -0.55244666
C 0.79522777 -1.1307473 0.37712407
C -0.7054752 0.70187557 0.29741883
H -1.0303956 -0.7511024 -1.3508769
H 0.0767541 -1.9310024 0.16768791
H -0.08581168 1.5236626 1.5340102
H 1.7746813 -1.4843473 0.6885544
H -0.564136 0.9295215 -1.8631012
