10

O -1.3268375 -0.04586261 -0.89349574
C -0.19162938 -0.15031564 -0.33150724
C 0.4455793 1.0754646 0.20416765
O 1.374712 -1.7543709 0.48201242
C 0.31967664 -1.5471914 -0.05703502
O -0.7294379 1.2055129 0.9574881
H -1.5254002 0.83994657 -0.19086812
H 0.6379185 1.8708088 -0.53182
H -0.3504906 -2.3442352 -0.42927122
H 1.3459094 0.8502432 0.7903291
