11

C -0.08600227 -0.07699120 -1.03720944
C -0.63525100 0.12349586 0.26844074
C -1.83523655 0.45059430 0.76463265
N 1.26792370 -0.31400753 -0.83697643
C 1.54443299 -0.35417432 0.44048177
O 0.45343503 -0.12213382 1.15392351
H -2.01711441 0.51020652 1.83056339
H -0.47528202 0.18415584 -2.00263691
H 1.94454771 -0.47676420 -1.56880235
H -2.65240357 0.64759197 0.08117855
H 2.49095056 -0.57197345 0.90640469
