10

O -0.89135748 0.31395232 -1.96113013
C -0.38434432 0.93578674 -1.07797862
C -0.71557528 -0.22299240 1.13231328
N 0.31513226 0.34208808 0.01663415
C 0.18938179 -1.08958761 0.33831476
H -0.21346459 0.02497680 2.08077904
H -0.40084719 2.03441281 -0.98823042
H -0.23207935 -1.66120305 -0.49058808
H 1.14723504 -1.48184866 0.68907918
H 1.18591900 0.80441541 0.26080680
