10

O 2.14495 -0.05489975 0.88033026
C 0.4897432 -0.7912631 -0.78103536
C -0.30219707 0.5111916 0.79294664
N -1.0058534 -0.059366703 -0.3736794
C 1.0440619 -0.12297227 0.38564894
H -0.7997093 -1.1792833 -0.48245546
H -0.25826734 1.6020771 0.727028
H -1.3803284 0.5507147 -1.0881963
H 0.8008787 -0.67080116 -1.814506
H -0.7332781 0.2146027 1.7539189
