10

O 0.7929277 1.9323896 -0.76188326
C 0.35385585 0.88945246 -0.3784912
C -0.92907923 0.4412663 0.3282076
N -0.5059793 -0.9551447 0.096463904
C 0.8340968 -0.5643642 -0.39027736
H -0.95392764 0.76587313 1.3777722
H -1.8738706 0.72394645 -0.14923084
H -0.4950521 -1.5271285 0.93222016
H 1.6656474 -0.7283096 0.31080964
H 1.111381 -0.9779805 -1.3655909
