11

C 0.16498062 -0.42800543 1.6809689
C 1.0421838 -0.28452718 0.5179823
C -1.085144 0.22797477 -0.89028585
O 1.092638 1.082816 -1.411456
C 0.39374232 0.4307579 -0.67902076
N -0.54607266 -0.5300117 2.5834804
H -1.6409068 0.7165227 -0.081795506
H -1.3822979 0.64729136 -1.8518119
H 1.3454205 -1.2836764 0.18377295
H -1.3363862 -0.8364682 -0.8465777
H 1.9518429 0.25732598 0.7947428
