11

C -0.43848458 -1.3804163 -0.5685965
C -0.5125846 0.01438472 0.036101222
C 0.84133816 0.64523727 0.22491243
O 1.8971688 0.14341182 -0.058874864
C 0.81197804 2.0104158 0.82001185
N 0.7770665 3.0664558 1.2828904
H 0.050477754 -1.3598742 -1.5463918
H -1.4452868 -1.7878402 -0.6915227
H 0.13274871 -2.0566878 0.07450668
H -1.0099448 0.007647209 1.0152093
H -1.104477 0.69726586 -0.588246
