11

C -1.36402823 -0.24394352 -0.31943295
C 0.05838457 -0.43045949 -0.78291145
C 1.17836264 -0.06642235 0.20605341
O 0.35974529 -0.88096097 -1.85823766
C 0.85534373 1.04861001 1.09766481
N 0.57639746 1.92829254 1.78967396
H 2.08588869 0.15551934 -0.36387575
H -1.50800125 -0.69467930 0.66757308
H 1.38414742 -0.95352025 0.81651020
H -1.57670031 0.82579407 -0.21154381
H -2.04953968 -0.68823004 -1.04147363
