10

N 2.074891 -2.573839 0.25644767
C -1.8139212 0.07274724 -0.028327385
C -0.77826625 1.1817766 -0.11687492
N -1.0958883 -1.0886517 0.08502919
C 0.20551673 -0.78909904 0.07120124
C 1.2420017 -1.7820114 0.170946
N 0.50956327 0.49486998 -0.043433107
H -0.8992251 1.8792217 0.7173167
H 1.4401591 0.8798855 -0.05136051
H -0.8848312 1.7250999 -1.0609449
