10

N 0.76819471 0.67589926 1.58089951
C 0.19782148 0.73443574 -0.57138912
N 0.85441509 1.35504328 0.44682066
N 0.07546101 -0.39516380 1.33697723
N -1.10621404 -1.41173356 -0.47820201
C -0.29915041 -0.39945117 0.02859412
H 1.36075540 2.22648359 0.43424481
H 0.14080584 1.13856314 -1.56940958
H -0.82326434 -1.74588376 -1.38838052
H -1.16882483 -2.17819286 0.17984507
