10

N -0.4070508 1.5217996 -0.5331526
C 0.0022735244 -0.41929358 0.2721352
N -0.46614355 0.3978798 1.2544954
N -0.71731085 1.5695369 0.7538071
N 0.2904361 -1.7541833 0.53279096
C 0.048195247 0.2935754 -0.9036069
H -0.5341776 2.3460102 -1.0992467
H 1.1458918 -2.0806427 0.10645585
H 0.30019897 -1.9265915 1.5300803
H 0.33768722 0.05190885 -1.9137585
