10

N -0.22252338 -1.1072203 -1.3834286
C 0.08750888 0.21612741 0.3566899
N -0.053140648 1.1520319 1.3574138
N 1.0379752 -1.3455443 -0.77209765
N 1.2031751 -0.5193918 0.2350522
C -0.7809512 -0.10732303 -0.68703634
H -0.9964186 1.3078697 1.6746942
H -1.7442795 0.30445975 -0.95169264
H 0.8647536 -0.92420334 -1.94322
H 0.60390085 1.0231936 2.113625
