10

N 0.97459096 1.4197941 0.5579623
C 0.25875297 0.31941384 0.1012138
N 0.24523632 -0.02498538 -1.1816655
N -0.4722702 -1.1427745 -1.1867312
N -0.935905 -1.5498161 -0.030309057
C -0.48481214 -0.6353723 0.8250878
H 0.49921995 1.9488833 1.2740339
H 1.2569169 2.020851 -0.20498157
H -0.6442928 -1.6547933 -2.0363162
H -0.69743705 -0.7012008 1.8817059
