11

C -0.51860636 1.1359057 0.47958377
C -0.12810528 -0.23252843 -0.03103028
C 1.2596133 -0.71433 0.02820702
O 0.2788687 -1.1809521 0.939166
C -0.99291 -0.77344775 -1.0810665
N -1.6820754 -1.1668346 -1.9196172
H -1.5228261 1.1124353 0.9097479
H 0.18670705 1.4512876 1.2535568
H -0.50713354 1.8674015 -0.3331043
H 1.6112072 -1.4459054 -0.6957776
H 2.0152605 -0.05303178 0.45033437
