11

C -0.51163458 -1.31393005 -0.99213815
C -0.11232967 0.09734184 -0.62901705
C 0.41581564 1.65384473 1.32019174
N 1.54531484 1.26380662 0.95328924
C 0.36703848 0.31228879 0.78034737
O -0.17005157 1.02421693 -1.40561629
H -0.87997119 -1.33934112 -2.01822894
H -1.28733234 -1.68119376 -0.31304836
H 0.35046249 -1.98292667 -0.89489618
H -0.07330114 2.51654996 1.75435283
H 0.35598956 -0.55065726 1.44476387
