11

C -0.803791 -1.4604125 0.44004053
C 0.9667705 1.8998039 -0.32727838
C 0.7724796 0.48379964 -0.10196419
N 1.2624948 1.2277528 -1.3389157
C -0.613117 -0.09606517 -0.18059582
O -1.5077316 0.5221088 -0.71263087
H -0.17368254 -2.1955 -0.07263239
H 0.9240946 2.926087 0.014647248
H 1.5249403 -0.100017734 0.42643663
H -0.5023917 -1.4501414 1.4920888
H -1.8500657 -1.7574155 0.36080432
