10

C 0.34650590 -0.62964727 -1.39270572
N -0.07226632 -0.04481615 -0.13799958
N -1.33072259 0.33580223 0.09745417
C -1.36097765 0.84620743 1.34939751
N -0.03950029 0.69240005 1.72517667
N 0.75925551 0.14932721 0.82773502
H -0.23967285 -1.53173589 -1.56565437
H 1.40853593 -0.85873100 -1.32410300
H 0.15630948 0.08855112 -2.18973878
H 0.37253246 0.95264211 2.61043812
