10

C 0.25919965 -0.6250139 -1.4340761
N 0.11178235 -0.06875975 -0.10553798
N -1.0266107 0.40910205 0.36425322
C -0.66357017 0.7848721 1.5770856
N 0.6385362 0.5428332 1.8262845
N 1.114422 0.0006122273 0.7440581
H -0.38165233 -1.5018053 -1.5374473
H 1.3048228 -0.9038884 -1.5503682
H -0.018940529 0.12558141 -2.1757345
H -1.3379897 1.2364662 2.2914827
