10

C 1.42555374 0.79015290 2.23104397
C 0.88987067 0.44191325 1.21043101
C 0.25146764 0.03749692 0.00628674
C 0.77937499 -0.16547833 -1.28225146
N -0.38875610 -0.51768429 -1.90620523
N -1.52099336 -0.55702141 -1.20299160
N -1.09859689 -0.21050963 -0.02622924
H -1.77211225 -0.15984756 0.72506826
H 1.91656655 1.10024963 3.12545426
H -0.48237487 -0.75927147 -2.88060673
