10

C -0.9325977 0.37701437 2.3663304
C -0.47372383 0.20996551 1.2660104
C 0.06529475 0.007136101 -0.033729278
C 1.3408357 0.12193294 -0.54974383
N 1.306846 -0.19493803 -1.8673402
N 0.088384286 -0.49915102 -2.201251
N -0.66493607 -0.38087907 -1.1108383
H -1.3314035 0.5282129 3.3460424
H 2.2542634 0.4070574 -0.052233703
H -1.6529629 -0.5763511 -1.1632469
