11

N 1.292527 -0.12535131 -1.8191247
C 0.51185745 -0.04105446 -0.8303166
C -1.205182 0.46356255 0.57626307
C -0.40642408 -0.5634615 1.33239
C 0.66602725 -0.78353924 0.46121997
O -0.60661924 0.70892185 -0.72419494
H 1.4530923 -1.522421 0.58468264
H 0.8355121 -0.08289603 1.4861954
H -1.2825136 1.4175261 1.1042963
H -2.2163339 0.07354343 0.41587794
H 0.9580568 0.4551696 -2.5872886
