11

N 1.37381612 -1.67658075 0.20702886
C -0.11717853 -0.21924872 -1.12059746
C 0.59679158 -0.68778651 0.12863916
C -0.75032002 1.06170976 0.66986517
C -1.07814170 0.84684269 -0.75152748
O 0.26386670 0.15145685 1.14351256
H 0.58964665 0.31880643 -1.78180999
H -0.42178033 2.09732416 0.83418996
H -1.66850889 0.91866350 1.25860472
H -0.52195228 -1.02354230 -1.74064253
H 1.73376048 -1.78764494 1.15273735
