11

N 1.9158854 0.625452 -1.2078984
C 0.88791376 0.26603645 -0.56584966
C 0.05547942 1.1206805 0.30413315
C -0.9341677 0.38291842 0.79729766
C -0.8067363 -1.0213895 0.27664655
O 0.35085827 -0.9949033 -0.5607538
H 2.3046243 -0.1540936 -1.7360399
H 0.27355903 2.1671906 0.46779004
H -1.7240864 0.6968765 1.4696878
H -1.6718457 -1.3336024 -0.31995133
H -0.6514843 -1.7551655 1.0749382
