11

N 1.8118625 -0.90448314 0.800137
C -1.115593 0.9185776 0.22493221
C 0.7701341 -0.3432316 0.36721116
C -1.2115777 0.08112029 -0.98479676
C 0.07336221 -0.6558078 -0.93918777
O 0.08423202 0.65534407 0.98163885
H 2.0909774 -0.51853836 1.6998043
H 0.01366346 -1.7209414 -1.1781696
H -1.993424 0.71219015 0.8549832
H -1.156076 1.9834765 -0.043003593
H 0.63243866 -0.20770642 -1.783549
