11

O -0.37378824 -2.10842955 0.11846390
C -0.07268213 1.37503288 -0.82672693
N -0.36274334 -0.05396874 -0.87781341
C 0.79090738 -0.87071259 2.31417467
C -0.13749370 -0.93426656 0.10883403
O 0.45852796 -0.24584762 1.21273026
H -0.66985834 1.87616473 -0.05962226
H 0.50036259 -1.93650201 2.13668223
H -0.79947351 -0.44820740 -1.69778396
H -0.32106693 1.79689145 -1.80396576
H 0.98730839 1.54984504 -0.62497269
