12

O 1.5090716 0.2222982 -0.7439086
C -0.9075398 0.15355007 -0.42661196
C 0.39023942 0.9021227 -0.24977654
O 0.349627 -0.8955551 1.4011312
C -0.27889943 0.262201 0.9400513
O -0.78694063 -1.1146413 -1.004043
H -0.01700519 -1.6154372 0.85904014
H 1.8099586 -0.34249976 -0.011793575
H 0.066324286 -1.1032717 -1.4708023
H 0.42700025 1.9818344 -0.36504146
H -0.72624654 0.8756797 1.71757
H -1.8355896 0.6737191 -0.645815
