12

O 1.21675110 1.13536924 -0.33251605
C -0.12981754 1.00549002 0.02525143
C -0.45513666 -0.18757190 0.88763625
O 0.65070637 -0.96297470 1.23963204
C -0.80953694 -0.19847806 -0.57832545
O 0.01636635 -1.01997586 -1.35247352
H 0.76913297 -0.45908509 -1.60702899
H -0.66342125 1.94544077 0.13558906
H 1.70785465 0.61050395 0.32235483
H -1.22511021 -0.12252623 1.65178327
H -1.84921694 -0.16389443 -0.89101012
H 0.77142785 -1.58229818 0.49910732
