11

N 0.76924805 -1.03223445 1.28798446
C -0.74092643 -0.42367587 -0.64994604
C 0.30178085 -0.13265279 0.40550991
N 0.66916760 1.11265703 0.36895045
C -0.10353277 1.63668740 -0.67946659
N -0.91151588 0.86410057 -1.30789173
H -1.68605448 -0.76065070 -0.20972138
H 0.56983147 -2.01256283 1.19457006
H 1.53483571 -0.75674074 1.88475968
H -0.41134420 -1.18340517 -1.36654307
H 0.00850998 2.68847727 -0.92820574
