10

C -0.30645332 -2.2249665 1.1815166
C -0.74939954 0.8427027 -0.47824013
C -0.018317992 -1.1922427 0.6392676
C 0.36881098 0.045419056 -0.011049529
N 1.5802267 0.4285536 -0.17568012
N -0.26488122 2.9573047 -1.5865111
N -0.49393508 1.9766586 -1.0746994
H -1.7883514 0.57305485 -0.36804587
H 2.2260227 -0.26060194 0.20988622
H -0.5537219 -3.1458824 1.6635559
