12

O 0.2803115 2.0431733 0.272843
C 0.23514152 -1.3261424 0.18162511
C 0.17924188 0.98101574 1.0517325
O -1.0037768 0.28159702 -1.0336297
C -0.60757685 -0.04771802 0.28462592
O 1.2922348 -1.1102561 -0.7229928
H 0.67331314 -1.5707606 1.151522
H 0.8741767 -0.7763728 -1.5288769
H -0.41675857 -2.1533494 -0.1363558
H 0.77101654 2.7269678 0.7478902
H -0.7844384 1.2121077 -1.1748884
H -1.4928856 -0.26026207 0.90650463
