12

O 0.14293535 2.07271740 -0.10481885
C 0.34638736 -1.25584531 0.38704174
C 0.17523723 1.16063050 0.85022915
O 1.32063141 -1.13739436 -0.62251488
C -0.58162055 -0.03463380 0.33609015
O -1.08969464 0.03119179 -0.98328410
H -0.26113793 -2.16537505 0.26861160
H 0.86629032 -1.29737979 1.34647293
H -1.40431293 -0.18898938 1.05374695
H 0.61153831 2.85902765 0.20528380
H 0.82507181 -0.97794650 -1.43780433
H -0.95132555 0.93399684 -1.29905383
