9

O -1.2530539 0.03444277 -1.614899
C -0.5103366 -0.13185626 -0.51454306
N -0.67644703 -1.1491183 0.28754184
O 0.2568504 -0.9770923 1.2949924
C 0.94848883 0.14252989 1.0552125
C 0.52602637 0.7450284 -0.07876792
H -1.8794669 -0.70203155 -1.6665249
H 1.7126703 0.38470262 1.7811033
H 0.87526834 1.6533949 -0.54411525
