11

C 1.2982476 0.6381882 0.57381785
C 0.10213769 -0.29099724 0.41345242
C -0.7473977 0.05038091 -0.7843645
O -0.5429222 0.9456629 -1.5590987
C -1.9314848 -0.8332556 -0.9757727
N -2.8471625 -1.5226417 -1.1131458
H 1.9465536 0.6001273 -0.306471
H 1.8842304 0.34503213 1.4489911
H 0.9764271 1.6753185 0.7035969
H -0.5516197 -0.26975584 1.2958215
H 0.4129905 -1.3380598 0.30317244
