12

N -0.43605953 -1.6663904 2.3263278
C -0.343635 -0.7705799 1.6050793
C -0.2536414 0.36155698 0.66307366
C 1.151735 0.48181978 -0.007525347
N 1.005451 -0.07393543 -1.3523703
C -0.23992427 -0.24289513 -1.5394984
N -1.0986851 0.15061294 -0.5131952
H -0.5381375 1.2742712 1.1956503
H 1.4485478 1.5325276 -0.07952744
H 1.9251237 -0.052393857 0.55057055
H -0.6631887 -0.6270354 -2.4638228
H -1.957586 -0.36755824 -0.3847618
