12

N 2.479202 1.4044517 -0.49356952
C 1.5061573 0.7950438 -0.61036646
C 0.18367396 -1.227827 0.14142725
C -1.1592335 0.25750592 1.027566
N -0.8909317 0.80357563 -0.22842637
C 0.24133942 0.04469085 -0.75780594
N -0.6267768 -0.8623883 1.302557
H -0.30517936 -2.0493374 -0.3918323
H 0.09731052 -0.18965992 -1.8160619
H -0.85867655 1.8100518 -0.3175202
H 1.176887 -1.5622919 0.44999686
H -1.8437722 0.77618456 1.6940356
