10

O -2.41093325 0.13803971 0.39101245
C 0.03458575 0.53142444 -0.18892751
C -1.21671229 0.13002007 0.42463108
O 0.47881577 -1.77150062 0.88755226
C 0.05465149 -0.45092089 0.97960514
C 0.68288436 1.05298358 -1.21621978
H 0.38240744 -0.01938251 1.92623796
H 1.73712867 0.85859201 -1.37716518
H 0.17771788 1.69734868 -1.93305769
H 0.07945431 -2.16660456 0.10633101
