10

O -1.5387456 0.10686136 1.8987858
C -0.08460785 0.5400491 -0.14314389
C -0.62399817 0.10330489 1.130292
O 0.8971993 -1.8096048 0.27493995
C -0.26716366 1.1136032 -1.3201543
C 0.6783345 -0.49713776 0.67724377
H 1.5637162 -0.109874584 1.183099
H 0.40858865 0.93251973 -2.1482184
H -1.1024216 1.7890582 -1.494398
H 0.06909851 -2.1687794 -0.05844576
