11

N 1.5580661 -0.31151903 -0.7389346
C -0.1228879 0.6977374 0.73140126
C 1.2481743 0.48632103 0.20662908
N -0.37749764 1.5868376 1.5854061
C -0.7320295 -0.8629972 -0.87290996
C 0.5085372 -0.8203925 -1.5356795
O -1.0358007 -0.24705352 0.31717643
H -1.6339111 -1.1798744 -1.3986183
H 2.0286512 1.0100604 0.75522506
H -1.3629724 1.5817589 1.8426989
H -0.078329496 -1.9408787 -0.89239436
