11

N 1.6164306 -1.602503 0.64226955
C 0.75987285 -0.7346694 0.30820638
C 0.85641366 0.6707935 0.7408646
N 0.020671807 1.5895417 0.43122146
C -1.0544957 1.2045683 -0.37911212
C -1.2023453 -0.050994616 -0.8042806
O -0.32910433 -1.0403329 -0.48562297
H 1.3919798 -2.515207 0.25298586
H 1.7124382 0.91220576 1.3688327
H -1.7637227 1.979121 -0.6439386
H -2.0081391 -0.41252348 -1.4314264
