17

C -1.8957498 1.7754261 -0.35324508
N -0.6229643 1.2568856 0.1039458
C 0.39630356 -2.2430294 -0.8879448
O -0.86972404 -0.7213801 -1.033704
N 0.82881343 -0.59008193 0.3028788
C 1.775282 0.06060544 1.1753052
C -0.22418958 -0.012222561 -0.1966677
H -2.7405472 1.4180477 0.24974637
H 1.3967577 0.19368693 2.2017596
H 2.6789563 -0.5557702 1.247431
H 1.4792385 -2.331939 -0.91510314
H -0.048083805 -2.4343355 -1.8615171
H -0.059434302 -2.8093934 -0.0842751
H 2.0875766 1.043547 0.7925694
H -2.0523622 1.4525489 -1.3847357
H -0.25735134 1.6305224 0.96458656
H -1.8725214 2.8668818 -0.32103035
