13

C 0.20001303 -1.5207927 -0.59644055
C -0.20579731 -0.056920495 -0.58337086
O -1.5739936 0.13595496 -0.2320578
C 0.7377816 0.7689146 0.30092975
O 1.9447165 0.6232877 0.26239267
N 0.0981116 1.6539716 1.106107
H 1.2501739 -1.6152842 -0.8810846
H -0.4224678 -2.0799003 -1.302161
H 0.081116356 -1.965508 0.40018535
H -0.114297226 0.35888726 -1.5919527
H -1.7602841 -0.43423218 0.5256262
H -0.8878004 1.8103777 0.9705054
H 0.6527277 2.321244 1.621321
