13

C -0.812769 -0.75912374 0.040508058
C 0.56590664 -0.6200089 -0.52872074
O -1.3394402 -1.8796382 0.36672974
C 1.1549255 0.76649725 -0.28175032
O 1.2558696 1.07905 1.0889112
N -1.7022581 0.16560686 0.33987164
H 0.513125 -0.8349827 -1.6033332
H -1.6606176 1.1356299 0.052492965
H -2.264575 -1.00669 0.62651867
H 0.55847675 1.5217563 -0.82176274
H 0.37230757 1.0137931 1.4716069
H 1.1879796 -1.3922701 -0.067040116
H 2.1710691 0.81038016 -0.6840319
