10

O -0.95800316 1.2805299 -0.52019143
C -0.014964272 -0.9467179 -0.328962
C -1.1986481 -0.07934473 -0.04273215
C 1.1266387 -0.02295331 -0.087368056
O -0.0036248816 -2.1576812 -0.39862248
C -0.5635048 0.9899701 0.72945154
H 0.5111654 1.0702664 1.0774952
H 2.0177584 -0.49299327 0.3309403
H 1.3123245 0.75891393 -0.8176423
H -2.2291417 -0.39998963 0.05763125
