10

O 0.33485064 -0.5097513 -2.236765
C 0.1490473 -0.322205 -1.069547
C -0.90764236 0.48384398 -0.2658548
C 0.009903385 0.26823997 0.9404765
O 0.07563163 -1.1306163 1.1357523
C 0.97575957 -0.5534563 0.1882294
H -1.9085948 0.05701336 -0.17100227
H -0.96669936 1.5123041 -0.6318867
H 0.20139001 0.92048556 1.7850287
H 2.036354 -0.725858 0.32556877
