10

O 0.58330223 -0.77024615 -1.64365481
C 1.30816013 0.29570598 -1.55047528
C -1.13386015 0.54683758 0.29562799
C 0.13512177 -0.13276835 0.75305314
O 0.41784087 -0.33140605 1.91349482
C 1.12066686 -0.52764250 -0.29877013
H -1.71419226 0.84413093 1.17099536
H -0.89522870 1.42621199 -0.31141240
H -1.72823222 -0.13184551 -0.32559370
H 1.90642148 -1.21897785 -0.00326510
