12

C 0.27210420 0.10742250 0.11630717
C -0.67252670 -0.95162706 -0.37440335
C -0.47803387 0.33592324 -1.14848136
O 1.64458990 -0.09528665 -0.06278618
N -0.13165246 0.84588745 1.26739096
H 1.94664350 -0.72153521 0.60695775
H 0.36574699 1.73041961 1.30501141
H 0.08344277 0.33418871 2.11828012
H -0.23655088 -1.85494809 -0.78986093
H 0.09217123 0.28416373 -2.07047393
H -1.60668163 -1.08096199 0.16163178
H -1.27925382 1.06635355 -1.12957340
