11

N -0.6637495 -0.9967092 2.271529
C -0.1535034 -1.070396 0.45201212
C 0.04896391 -0.08885282 1.9492496
O -0.88663363 -0.31778345 -0.40901688
C 0.99645966 0.88617206 -1.2884016
C -0.35971537 0.9647297 -0.71450657
N 2.0581377 0.80986583 -1.7366893
H -0.5906199 -2.0618875 0.48265752
H -1.0444757 1.4051234 -1.4417816
H 0.9167334 -1.1085987 0.24065426
H -0.32159728 1.5783366 0.19429341
