11

N -1.56208872 0.83494563 -0.34332641
C -0.96941178 0.14287036 0.76259535
C -1.99245015 1.37137764 -1.29568650
O -0.28610986 -1.00188675 0.34568672
C 0.77822914 -0.76682240 -0.54266272
C 1.83249982 0.07449022 0.06144744
N 2.63694261 0.74126680 0.54987879
H -1.75890724 -0.20048031 1.43170476
H 0.43064764 -0.29096238 -1.46925404
H -0.30397176 0.84214199 1.28494874
H 1.19462020 -1.74694064 -0.78533216
