10

N 0.68453377 -1.16611311 0.52004402
C 0.62697357 -0.36760863 1.63147390
O 0.14443904 0.73997074 1.66150798
C -0.35679938 0.19101882 -1.02124926
C -0.99717479 1.18757104 -1.56581564
N 0.23565967 -0.85585372 -0.73750938
H 1.07727080 -0.87385737 2.50112082
H -2.07971537 1.18475273 -1.59549227
H 1.11496047 -2.07608009 0.56561429
H -0.45014781 2.03619956 -1.95969483
