10

N 0.07263744 -1.4411436 -0.12915516
C 0.16705254 2.073284 -0.7280439
O -0.50750065 -0.25044963 1.7345738
C -0.33014727 -1.3057529 1.1730095
C 0.22824031 0.77113426 -0.748333
N 0.3623319 -0.42972773 -1.0079637
H -0.47668573 -2.292528 1.642203
H -0.73879147 2.5782077 -1.0399436
H 1.0092663 2.6524155 -0.36772126
H 0.21359678 -2.3554397 -0.5286258
