10

N -0.15848795 -0.7494045 -0.84666306
C 1.0599916 -0.28584588 -0.4201324
C 0.83713514 0.5953455 0.6082428
C -0.5711055 0.6650345 0.81044567
C -1.156902 -0.17570062 -0.10212489
H -0.29910773 -1.4112097 -1.590672
H 1.9762214 -0.6236161 -0.882684
H 1.5937576 1.1339351 1.1613086
H -1.086042 1.2661654 1.5463388
H -2.1954606 -0.41470376 -0.2840596
