9

N -1.0727556 0.4937046 -1.238463
C 0.8073528 -0.49707547 0.050738398
C -0.4137712 0.24320588 -0.13629642
N 1.6480814 -0.6842771 2.3269346
N 1.2597107 -0.5966857 1.2768251
O -1.0513202 0.79054505 0.83757126
H 1.3880965 -0.9774417 -0.72323346
H -0.8223608 0.16771111 -2.1620572
H -1.7430336 1.0603135 -0.23201917
