11

N 0.6917598 -1.7151719 -0.43347874
C -0.24659346 -0.70447606 -0.37086704
C -0.09755007 0.14519553 0.7988823
C 1.1640561 -0.40810373 0.12608725
C -0.7414102 1.179719 -0.1457808
O -0.81920666 0.2052811 -1.2363999
H -0.12331741 2.0280056 -0.45538497
H 0.5338096 -2.4179087 0.28591007
H -1.7398077 1.5056232 0.16028582
H 1.7365359 0.18610168 -0.57187974
H -0.3582759 -0.0042656087 1.8426257
