11

N 1.69973629 -0.74015359 0.41390758
C 0.78922527 0.35026447 0.88989417
C -0.59916573 -0.18735021 0.52412882
C -1.05268420 0.48318061 -0.78808018
C 0.53440186 -0.56235560 -0.30464422
O 0.15214246 0.03385279 -1.48917130
H 1.10362033 1.34221942 0.59808564
H -1.23414924 -0.76465475 1.18988575
H -1.95067674 0.04149111 -1.22990329
H -1.09874595 1.57641930 -0.80190315
H 1.65629600 -1.57291378 0.99780049
