11

N -0.15452614 -0.8913866 -1.7771094
C 0.24521036 -0.11797455 -0.7801579
C 0.36803415 1.2010976 0.71287405
C -0.47528958 -0.106618926 0.6640589
C 0.29427126 -1.1762047 0.16191886
O 0.89981157 1.0883169 -0.6287456
H 0.62736124 -2.1954894 0.2080449
H -1.5217527 -0.09867397 0.95793235
H -1.1672083 -1.0193088 -1.7469532
H 1.1650395 1.239848 1.4553761
H -0.2809514 2.0763943 0.7727607
