10

O -0.7308275 -1.4380145 -0.75332856
C 0.14425841 0.8284826 0.6825131
C -0.76381946 -0.2843828 -1.2187685
C 0.7352236 -0.47323784 0.6763151
N -0.122112244 0.7853488 -0.7819348
H 1.69981 -0.5898138 0.19153616
H -0.75721186 0.9216318 1.2985629
H 0.82835734 1.6612992 0.84816504
H 0.31726605 -1.3319163 1.1843302
H -1.3509443 -0.07939719 -2.1273906
