10

O 1.8323506 -0.16098268 0.7774343
C 1.1370049 -0.8102628 0.03127239
C -0.117020816 -0.26833707 -0.5607751
C -1.0604203 0.3881997 0.39508653
N -0.2951923 1.182441 -0.5371111
H 1.399882 -1.8493271 -0.24951573
H -0.5099218 -0.7846176 -1.4334344
H -2.1266804 0.32564408 0.19487244
H -0.7702605 0.39278886 1.4444185
H 0.5102586 1.5844537 -0.062248036
