11

C -0.53291273 -1.0794297 -1.4113796
C -0.016217818 -0.2499725 -0.28678486
N 1.1593885 -0.25964904 0.24884772
C 1.0910954 0.6949698 1.2538925
C -0.14258666 1.2354004 1.2654264
O -0.86941284 0.63706845 0.2771101
H -1.4250906 -1.6342366 -1.1071398
H 0.2428375 -1.7871188 -1.7095194
H -0.7996301 -0.46018773 -2.2724555
H 1.9365909 0.9139582 1.8901632
H -0.64406186 1.9891975 1.851839
