11

C 1.7681596 0.9974518 -0.6307422
C -1.4402692 -0.09492305 0.35635573
N 0.64760756 -1.051319 0.08070604
C -0.5550862 -1.3025082 0.41845134
C 0.6905395 0.32767367 -0.23279049
O -0.5316338 0.90771425 -0.073233426
H -0.8855396 -2.2949762 0.7147101
H 1.715753 2.057057 -0.84794676
H -1.8660059 0.17755018 1.3276845
H 2.7096815 0.47527626 -0.7416313
H -2.2532065 -0.1989966 -0.37156326
