10

O -0.0025028868 -0.9030805 -1.9475714
C -0.5834724 1.0897638 0.8949907
N 1.0080972 -0.5251836 0.13997562
C 0.083432086 -0.33294272 -0.74736965
C 0.59130013 0.31639537 1.1786463
N -0.88400984 0.5429643 -0.35178697
H 0.76851434 -1.4798071 -2.0426073
H 1.2345995 0.47742134 2.036925
H -1.6961585 0.77370125 -0.901234
H -0.5197995 0.04076818 1.7400316
