10

O -0.28045752 0.04233069 2.12149160
C 0.43549047 0.39779406 -1.24980808
N -0.63705288 -0.98280662 0.05372905
C -0.38249365 -0.87917939 -1.25006736
C -0.06938492 0.07579977 0.80798480
N 0.56992255 0.91948661 0.11681395
H 1.42249901 0.19938160 -1.68404627
H -1.17463655 -1.72674674 0.47710726
H 0.15924226 0.81507097 2.50584562
H -0.04312872 1.13886895 -1.89905110
