17

C -2.4792824 -0.92677104 0.59588504
N -1.319543 -0.4276021 -0.11589364
C -0.2629941 0.07020306 0.6261791
O -0.35029188 0.22121854 1.8380148
N 0.8572167 0.4194387 -0.092933096
C 2.0658584 0.7601809 0.62646616
C 0.9327994 0.34884933 -1.539392
H -2.2668967 -1.8323723 1.1788106
H -2.8300729 -0.15952049 1.2906338
H -3.2731793 -1.1405497 -0.123380385
H -1.0860786 -0.9285932 -0.95875055
H 2.85197 0.010498735 0.462014
H 1.8310119 0.80172575 1.6895872
H 2.449066 1.7349855 0.30011937
H -0.024055198 0.6378832 -1.9849957
H 1.6893502 1.0590056 -1.887108
H 1.2151217 -0.6485802 -1.9052566
