10

N -0.08760350 -0.55270717 1.10863739
C 0.42502280 -0.59821302 -0.15487330
O -0.95264043 1.87378281 0.16995974
N 1.41041897 -1.23986521 -0.62455947
C -0.89613208 1.28151866 -0.87681964
O -0.30458133 0.10829656 -1.11137066
H 0.46343438 -0.99062413 1.83035032
H 1.83046030 -1.83053813 0.08627418
H -0.54749809 0.30510200 1.38839958
H -1.34088100 1.64324748 -1.81599791
