9

O 1.34242420 -0.04758823 -1.46885259
C 0.40105245 0.00181451 -0.52193113
N 0.68455102 -0.35391823 0.73815808
N -0.43061149 -0.21415821 1.50875039
C -1.30701005 0.22256106 0.63392831
N -0.84957621 0.37627851 -0.64320461
H 0.93093467 0.25006580 -2.29283860
H 1.55517157 -0.67877598 1.12834558
H -2.32693614 0.44372067 0.91764474
