9

O 0.7530049 0.2458284 -2.078475
C 0.26442802 0.10794925 -0.83739156
N 0.9897913 -0.31484523 0.17735568
N 0.07769954 -0.28227 1.1818432
C -1.1052848 0.14714654 0.72057754
N -1.0294117 0.4071572 -0.5681739
H 1.6860186 -0.0076566273 -2.0538986
H 0.34567037 -0.5584117 2.112876
H -1.9819162 0.25510207 1.3452868
