12

N 0.46631022 1.62000712 0.13677795
C -0.71366207 0.85515875 0.55041288
C -0.55726848 -0.56406631 -0.07781099
C 1.06115107 0.90793713 -0.73070297
N 0.47351222 -0.30921035 -1.06534032
C 0.24904970 -2.34019125 1.64706534
N -0.13196834 -1.54515475 0.87677316
H -1.47535047 -0.92331159 -0.54656907
H 1.96212947 1.22097623 -1.25260050
H -1.61620845 1.34388524 0.16837050
H 1.06439607 -1.07896699 -1.34549490
H -0.78209124 0.81293673 1.63911902
