12

N -0.92664653 2.0775626 1.7894379
C -0.8556858 1.2737873 0.9644998
C -0.76046574 0.22400145 -0.067671895
C 0.39686877 0.47435668 -1.0849453
N 1.4861785 -0.4139895 -0.6824571
C 1.0037838 -1.196779 0.19698906
N -0.34353033 -1.051648 0.5108708
H -1.731846 0.13707016 -0.56174386
H 0.07369259 0.21526057 -2.0980015
H 0.7272632 1.515659 -1.0908266
H 1.573786 -1.9905742 0.6713616
H -0.64339876 -1.2647071 1.4524872
