12

N -0.64152044 0.9240867 0.33257598
C 1.5161116 0.6821995 -1.108629
C -0.17446566 0.115962766 -0.73579043
C 0.12573622 -1.2258707 -0.0074314354
N 0.84336865 0.9754548 -2.051174
C -0.2757363 0.29101658 1.5185913
N 0.13835774 -0.90562576 1.4172847
H 1.0671118 -1.6822331 -0.31524754
H -0.69127744 -1.9312379 -0.21788444
H -0.40299505 0.8135425 2.4645312
H -0.60029835 1.9269937 0.2394575
H -0.90439284 0.015711278 -1.5362837
