12

N -0.0629752 -0.71391815 -0.97011846
C -0.63858706 -0.3594234 0.31272176
C 0.43492517 -1.773 2.2178044
C 0.8312921 0.29935762 -1.305242
N -0.0628725 -1.1334503 1.3729485
C -0.25398022 1.1500636 0.39548972
N 0.7835304 1.3659481 -0.61712426
H -1.1217809 1.7777321 0.1666794
H 0.20593823 -1.6756945 -1.1212059
H 0.113672115 1.4225371 1.3866185
H 1.4887499 0.16249464 -2.1603153
H -1.7179121 -0.5226469 0.3217441
