11

C -0.86461165 0.29475344 0.77148887
C 0.13211603 -0.24455184 -0.13014036
C 1.08243660 0.60140053 -0.93293153
N 0.24752804 -2.67568330 -0.31655662
N 0.19492993 -1.54836647 -0.23050781
N -1.65795254 -0.44175637 1.45171681
H -0.85775613 1.39194301 0.79998070
H -2.27057059 0.14309955 2.01885960
H 0.53816921 1.28028695 -1.60240716
H 1.74013899 -0.01760391 -1.54868802
H 1.71557209 1.21647820 -0.28081431
