9

N 1.2104003 0.021457171 -0.119376846
C -0.06253176 0.60946476 -0.5092536
N -1.1049725 0.49174753 0.5156531
C 0.108957134 -0.84289896 -0.4174802
O -0.81772363 -0.9298315 0.65679073
H 0.1852496 -1.6856977 -1.0907798
H -0.12650771 1.3348192 -1.3079231
H 1.4310745 0.072443485 0.8758093
H -0.823946 0.9284959 1.3965602
