12

C 1.062083 -0.7684595 1.6038411
C -0.751363 0.77148813 -1.2281772
O 1.113944 1.4714139 0.7203953
N -1.563635 0.030437378 -1.9124302
C 0.6709529 0.34090102 0.6554802
N -0.2466875 -0.05154004 -0.30337796
H 1.4740417 -1.6165587 1.047646
H 1.803034 -0.39393345 2.3105772
H -1.1113079 -0.83606076 -1.0064323
H -2.1205437 0.35887784 -2.686668
H 0.18192013 -1.1298273 2.1457865
H -0.51243836 1.8232617 -1.3466405
