12

C 0.23997284 -1.2809528 0.47624615
C -0.31612182 2.0892916 -0.6327345
O 0.88271654 1.1706389 1.2246687
N -0.16462174 -0.28878328 -0.24967182
C 0.21091226 0.9733642 0.23175262
N -0.03279739 -2.5443916 0.13368168
H -1.409073 2.0331032 -0.6784278
H 0.81711537 -1.1322709 1.3891474
H -0.564709 -2.7222812 -0.7027249
H 0.2856284 -3.315474 0.6937794
H -0.001481279 3.053043 -0.22983347
H 0.052458756 1.9647131 -1.6558838
