12

C 0.5586773 -0.64939415 -1.8494174
C -0.08104752 -0.74076784 -0.48062298
O -0.61174244 -1.7415227 -0.04978705
N 0.009091351 0.42093244 0.26944306
C -0.47601327 0.54007846 1.5641665
N -0.3480866 1.6438595 2.1750624
H 0.13522457 -1.426647 -2.484218
H 0.40491393 0.3309127 -2.3118167
H 1.6377252 -0.8214415 -1.7587924
H 0.45128158 1.244838 -0.11648291
H -0.93661916 -0.37747672 1.9349043
H -0.743405 1.5766287 3.1075606
