12

N -0.27070248 -1.5881133 -0.77630794
C -0.96679574 0.5486951 -0.06566618
C -1.1301017 -0.7677259 -0.892471
O -1.3767827 0.25879824 1.2198101
C 0.58756745 0.7704807 -0.073394686
N 1.2113248 -0.36917028 0.46958983
H -0.6382469 -0.26582256 1.5956138
H 0.90354115 1.0853084 -1.0809733
H -1.5442675 1.3812265 -0.46439606
H 0.6394679 1.6431166 0.6013821
H 2.0805871 -0.53767616 -0.03835485
H 0.50440896 -2.1591172 -0.4948316
