12

N -0.74332994 -1.0219723 -1.0297816
C -0.23493049 -0.6357145 0.2812027
C 0.56940776 0.66621697 0.085891195
O -0.16624461 1.5764219 -0.6829491
C 0.888889 1.2603369 1.3938802
N 1.1524206 1.6804653 2.437192
H -0.04254365 -1.5320635 -1.5599152
H -1.5592349 -1.6136609 -0.95333415
H -1.0941787 -0.4117652 0.9251205
H 0.3861726 -1.3917197 0.7792907
H 1.5304828 0.42397007 -0.40062866
H -0.6869105 0.9994849 -1.2759683
