12

N -1.1910572 -2.6113696 0.09160203
C 1.1347023 -0.017328233 0.3582311
C -0.40016276 -0.11279498 0.3163488
O 1.5107692 1.3252548 0.44635656
C -0.8430797 -1.5181825 0.22108556
N -0.8674054 0.71981186 -0.7884488
H -0.69598377 0.25242665 -1.6750609
H 1.529059 -0.54122585 1.2326257
H -0.7918391 0.31510916 1.2453988
H -1.8642998 0.89013344 -0.7315161
H 1.543121 -0.5039637 -0.5429193
H 0.93617636 1.8021289 -0.17370346
