11

C 0.5941201 0.73448354 2.2426014
C 0.3045829 0.16798727 0.9263941
C 0.07698514 -0.31453636 -0.15364257
C -0.14397848 -0.97096187 -1.4436456
O 0.33014992 -2.055631 -1.7132062
N -0.93635637 -0.2632799 -2.2981596
H 0.45397335 -0.0197834 3.0227075
H -0.060012534 1.5817443 2.4626482
H 1.6313014 1.0782402 2.287953
H -1.0405087 -0.6234142 -3.234028
H -1.2102568 0.6851513 -2.0996218
