11

C 1.74901528 -0.25673172 0.61824439
C -0.60506463 -0.05617777 0.05622745
C -1.04466536 0.75721123 -1.08567524
N 0.46247244 0.05348756 1.08333978
C -0.62278268 -0.96996288 0.95383882
O 2.15508260 0.02844119 -0.48149459
H -1.04081480 -1.74154111 1.57337993
H -1.97430486 0.36535969 -1.50293138
H -0.26470431 0.74467831 -1.85125598
H -1.19375900 1.79333283 -0.76392749
H 2.37952568 -0.71809753 1.40025408
