11

C -0.37330228 0.30935887 0.3706254
C -1.0693101 1.1512665 -0.61200213
C 1.4182819 -1.1841462 -0.30572206
N 1.0244439 -0.15539911 0.56279004
C -0.17007594 -0.36420932 1.4411525
O 1.0764264 -1.2592672 -1.4603353
H -0.34667984 -0.7078153 2.4434803
H -2.0955203 1.3461831 -0.29454336
H -1.0747912 0.6389312 -1.5774516
H 2.1445935 -1.8743678 0.16118963
H -0.5340658 2.0994651 -0.7291834
