11

C 0.2899623 -1.2371346 -1.2706008
C 0.5109009 -0.23789997 -0.16869393
C -0.37263542 1.5570632 1.2944741
C -0.59967697 0.35539332 0.57615453
N 1.578949 0.10025309 0.37234655
O 0.7202236 1.989735 1.637431
H -1.2924664 2.1442587 1.475001
H -0.17972389 -0.72574717 -2.1139147
H -0.38909394 -2.0206225 -0.9184162
H 1.2326043 -1.687055 -1.5879488
H -1.4990436 -0.23824391 0.7041672
