11

C -0.67431547 -0.79747487 -1.46553642
C 1.29796984 0.78328022 1.21562732
C -0.56061776 -0.37352699 -0.05985057
C -0.14664720 0.64631927 0.88916583
N -0.75753381 -0.73439339 1.11928106
O 2.09668908 -0.10486047 1.03326123
H -1.14641951 -1.77898618 -1.53527978
H 0.32938224 -0.84392363 -1.90035667
H 1.60336620 1.76546599 1.63014914
H -1.25727646 -0.06539832 -2.02998667
H -0.78459725 1.50349837 1.10352559
