11

O 1.77755759 1.03117223 0.24838489
C -1.08421371 -1.38809688 0.45491877
C -1.44253807 -0.47528984 -0.48279455
C -0.47227034 0.60451457 -0.75247580
C 0.59171799 0.41579823 0.02914767
N 0.36327668 -0.77867134 0.82271073
H 1.04887064 -1.51363570 0.64360067
H -2.38944311 -0.52495006 -1.00991773
H -0.59253677 1.41548754 -1.46324317
H 1.82572529 1.81325792 -0.31718721
H 0.37385371 -0.59958655 1.82685610
