11

O 0.18654294 -1.9090989 1.132781
C 0.02758057 -0.76585203 0.41555542
C -0.87617403 -0.36780977 -0.5376534
C -0.50239164 0.96534 -0.9096981
C 0.59762216 1.3154968 -0.17737848
N 0.9160916 0.24156705 0.6369449
H -0.5070078 -2.5205255 0.86330414
H -1.7015405 -0.94907373 -0.92263734
H -1.0030398 1.5822673 -1.6405655
H 1.1852309 2.2192855 -0.15436648
H 1.6770855 0.1884034 1.2937142
