10

O -1.54056343 1.73646162 0.77630134
C -0.60813294 -1.67823752 0.50641574
C -0.50041032 -0.20051882 0.31735307
N -1.60336483 0.54122913 0.90392684
O 0.18572800 -2.47132044 0.07890066
C 1.42670644 1.03717858 -0.93735649
C 0.48802775 0.38656546 -0.32337415
H -1.50829981 -1.97905698 1.08015510
H 2.29552272 1.40451132 -0.39525427
H 1.36478601 1.22318777 -2.00706786
