10

O 1.91546691 -0.58597243 -0.33499850
C -1.41190819 -0.40254485 0.09923465
C 1.25337627 0.12386026 0.54430645
O 0.88235701 2.15299840 -0.53478624
C 0.38880682 1.10424639 -0.19287218
O -0.92536089 0.88804075 -0.28460015
H -1.05731020 -1.16758785 -0.59894077
H -2.49843604 -0.32995181 0.04145329
H 2.55884247 -1.13248106 0.14379359
H -1.10583426 -0.65060803 1.11740981
