10

O 0.9582142 2.0910954 -1.1636004
C 0.6724246 1.1145003 -0.54920083
O 1.1282444 0.7572906 0.70774394
C 0.49933052 -0.53560525 0.5687884
C -0.96642137 -0.36923563 0.50629056
C -0.12081255 -0.1485465 -0.74182963
H 1.0781623 -1.4040756 0.8476677
H -1.5562911 -1.2818977 0.4750144
H -1.4319261 0.4716526 1.0144956
H -0.26092505 -0.695178 -1.6653696
