10

O -1.6167684 -1.9452707 0.48116243
C -0.7370467 -1.1532438 0.3710478
O 0.5689197 -1.2735229 0.72066015
C -0.6234461 0.28604382 -0.10086919
C 0.7979663 0.14151268 0.42567626
C 1.0266715 0.43308675 -0.9703108
H -0.3511013 0.16496554 -1.2777013
H 1.0810913 1.5320622 -1.0538999
H -1.2969393 1.1049769 0.12179227
H 1.1506526 0.70938945 1.2824423
