11

N -0.9191819 2.5632718 -0.16364431
C -0.41629776 1.5649 -0.47143313
C 0.1713684 0.30781987 -0.84861636
C -0.22860365 -1.1493342 0.38957277
C 1.0584127 -0.40213096 0.13406055
O -0.848105 -0.6002125 1.4572488
H -1.7373073 -0.9831039 1.5090973
H 0.39735115 0.19580007 -1.9093139
H 1.8513691 -0.9872518 -0.32739368
H 1.4111079 0.20066294 0.9717793
H -0.74011356 -0.7104214 -0.7413574
