11

N -1.2980795 -1.4369887 -2.0086744
C -1.2396809 -0.8517114 -1.0149103
C 1.269128 -0.31860727 0.552108
C -1.1845982 -0.089094006 0.24088445
C 0.14233543 0.6693748 0.3702018
O 2.254107 0.11701275 -0.20889801
H -2.0348556 0.59821427 0.2688565
H 0.29067382 1.3707807 -0.4635719
H -1.2900089 -0.79397 1.0705068
H 0.10240892 1.2421527 1.305872
H 2.9885697 -0.50716394 -0.11237524
