11

N 0.78616476 1.2001373 -0.21960722
C 0.8459032 -1.20599 -0.9401186
C -0.16696984 -0.95976347 -0.08650445
C -0.12992866 0.45638207 0.28367263
N 1.8272327 -0.8123785 -1.5979626
N -1.0879571 0.8588475 1.2042843
H 1.2377514 -2.1584933 -1.5069609
H 0.74470645 2.1633217 0.09930141
H -0.86349726 -1.6942326 0.2842972
H -1.2671905 1.8516377 1.2345271
H -1.926215 0.30053133 1.2450714
