11

N -1.0603145 0.61856604 1.0036553
C -0.65911716 -1.0350288 -1.2555568
C 0.11404013 0.4126046 0.553578
C 0.34157795 -0.547841 -0.54722995
N 1.2969635 0.965531 1.0342127
N -1.5300763 -1.4210286 -2.0053484
H 2.0526698 1.0535071 0.37075183
H -1.0442201 1.3258463 1.7424381
H 1.3425041 -0.90104717 -0.76970166
H -2.0383985 -2.2594302 -1.7339919
H 1.1843706 1.7883211 1.6071929
