11

N 0.27243014 1.79572646 -2.25455678
C 0.40720554 0.89494868 -1.45443923
C 0.65861858 -0.01341438 -0.53132623
C -0.30894332 -0.30813811 0.54708429
N 0.22314223 -1.13430679 1.53216057
N -1.50355338 0.13149899 0.48605541
H 1.21845042 -1.06510985 1.68573638
H -0.22027289 1.57990737 -3.11804326
H 1.58577426 -0.57117064 -0.60475465
H -0.30198049 -1.16890216 2.39298361
H -2.03087117 -0.14103961 1.31909988
