9

N -0.31326184 -0.9098233 1.0858902
C -0.6143363 0.97826385 -0.6511738
C -0.08172682 0.02702276 0.040073328
C 1.0205134 -0.8284934 0.44684434
N -1.1324686 1.7768741 -1.4427233
H -0.8338141 -1.7138873 0.73825246
H -1.173016 2.7295816 -1.0792986
H 1.8057098 -0.4401961 1.0948257
H 1.3224005 -1.6193423 -0.2326903
