11

N 0.30243235 0.44806956 1.52321408
C 0.28812248 -0.77299078 1.19941940
O -0.20308805 -1.20347402 0.02697438
C -0.74611041 -0.18330531 -0.80381654
C 0.30878740 0.80834794 -1.26052174
O 0.02051277 1.86870622 -1.75198785
H -1.13903830 -0.71020651 -1.67791020
H 0.65047070 -1.63140817 1.77115087
H 0.71527028 0.57031058 2.44268847
H -1.55366383 0.35348220 -0.29835630
H 1.35630455 0.45246845 -1.17085482
