11

N 0.62654984 0.9027787 1.6402783
C -0.90337926 -0.8215859 -0.22978202
O -0.1298314 -1.0781645 0.7457452
C -0.64454323 0.3225227 -1.1552378
C 0.9217193 -0.08906289 0.9421022
O 0.6716075 0.13293563 -1.3444511
H 1.4675221 1.434986 1.8694615
H 1.8602083 -0.55145854 0.65853864
H -0.999414 1.2614256 -0.6676653
H -1.5733367 -1.6644976 -0.42284456
H -1.2971026 0.15012075 -2.0361454
