12

C -1.27334475 -0.99755623 -1.60162170
N -0.05279494 -0.36085226 -1.14550761
C -0.00187151 0.00567707 0.05905872
N 1.12629477 0.63706090 0.56880542
C 1.25866302 1.07467055 1.86137185
O 2.24420872 1.62255891 2.29313187
H -1.03158891 -1.98308694 -2.01198743
H -1.69958973 -0.40649007 -2.41853138
H -2.03806682 -1.11889180 -0.81958136
H 1.90880366 0.78397442 -0.05843910
H -0.80328386 -0.12803866 0.79842548
H 0.36257019 0.87097423 2.47487512
