12

C -1.7726345 1.087022 -0.92621136
N 1.295847 -0.5584571 0.08265764
C 1.8473029 -1.2020242 1.1603725
N -0.42501342 0.5537909 -0.9787076
C 0.009482823 -0.033761833 0.04789445
O 2.966874 -1.6538093 1.1790663
H 1.1546342 -1.2675172 2.0187323
H -1.7344905 2.1684184 -1.0920796
H -2.3597264 0.65825796 -1.744503
H 1.8681326 -0.46037403 -0.74813014
H -0.55361944 -0.18687263 0.9786349
H -2.2967894 0.89532745 0.022273801
