12

N 0.6737533 0.71980655 0.09398897
C 1.3058238 -0.4561749 -0.34075448
C -1.4316878 -0.6392506 0.3438972
N 0.6636555 -1.5285239 -0.6017288
C -0.55576265 0.421544 0.28679612
O 2.6406345 -0.35386577 -0.45547056
N -1.6876467 1.194754 0.6399286
H -1.9639941 1.9136747 -0.01388325
H -1.8066258 1.4356638 1.6131191
H -1.9922945 -0.94770604 -0.53593093
H 2.879265 0.5384993 -0.17446229
H 1.2748799 -2.2984214 -0.85549974
