12

N -0.8266361 0.9890622 1.8412608
C -0.7527031 -0.35840604 -0.87075406
C 0.5067763 -0.43311056 0.026176864
O -1.7514936 -0.4779871 0.11489764
C -0.31136543 0.14112271 1.1649909
N 1.6863374 0.2677848 -0.37955523
H -1.7083318 0.57149583 1.0728347
H -0.7885365 -1.1883692 -1.586529
H 2.4695737 0.1055882 0.24082936
H 0.73975724 -1.479459 0.24129403
H 1.5216057 1.2655144 -0.44960997
H -0.78498393 0.5967639 -1.4158361
