11

N -0.44091343 0.69288431 -1.46604237
C 0.71048096 0.82428860 -0.57566883
C 0.48169063 -0.09874191 0.61384615
N -1.18165055 -0.16909122 -0.86092092
N 1.29986319 -0.22892190 1.58849477
C -0.79768972 -0.69923115 0.30698625
H -2.05381023 -0.41418542 -1.31914061
H 0.81052336 1.86924404 -0.26031157
H 1.62271949 0.55509017 -1.11990421
H 0.95058674 -0.91013023 2.26274916
H -1.40180068 -1.42120536 0.82991193
