11

N 0.80586773 1.9499369 -1.2469702
C 0.11774733 -1.4793055 0.48598188
C 0.16013582 -0.030498877 0.64283663
C 0.70055383 0.85758424 -1.7310346
C -0.4250158 0.86967564 -0.40759203
O -0.7947933 -0.8039086 1.3453721
H -1.2549617 0.4067213 -0.9414516
H -0.32207334 -1.8970214 -0.41796556
H 0.8631348 -2.0947764 0.9844609
H 0.94075936 0.42181486 1.2559733
H -0.79135454 1.799778 0.030389149
