11

N 0.32465646 2.9285762 0.45050266
C -0.20912369 1.9104062 0.35153386
C -0.8551894 0.6003135 0.20440014
C 0.009511421 -0.35525805 -0.59632164
C 0.916153 -1.2918379 0.06599024
O -0.33154836 -1.7198492 -0.46620598
H -1.8241868 0.7342638 -0.2875907
H -1.0475402 0.17392729 1.1950294
H 0.23922643 -0.035066567 -1.6127098
H 1.7983509 -1.6532876 -0.45845157
H 0.9796901 -1.2921879 1.1538234
