11

N 0.62968624 1.7861348 0.25700873
C 0.0719804 -0.56431735 0.3913075
C -1.2210252 -0.9802801 -0.14379677
C 0.8934691 0.5015174 -0.30185428
C 0.37724468 2.8131232 0.758369
O -0.052725513 -1.7730297 -0.32341853
H -1.9735005 -1.397232 0.5225887
H 0.65545243 0.5134049 -1.370835
H 1.9622027 0.28649876 -0.20019655
H 0.26086038 -0.67539924 1.4598892
H -1.6036446 -0.51042074 -1.0490623
