10

O 0.95046985 -1.824165 -0.0890727
C -0.4676881 -0.24579126 0.059146516
C -1.7705524 0.39631793 0.20856638
N -0.37034336 -1.5552449 0.0647971
O -1.750171 1.7047421 0.18752778
C 1.6392245 -0.6678737 -0.18893138
C 0.8060255 0.3877368 -0.1043828
H -2.7622426 1.135488 0.3214767
H 1.0186868 1.4448476 -0.14387543
H 2.7065907 -0.77605736 -0.31525218
