10

O -0.04335880 0.83198486 2.15764673
C 0.39772993 -0.99588380 -1.43291279
C 0.51021948 -0.66117812 -0.13368996
N -0.95981760 0.72790126 -1.15953507
O -0.47472795 -0.17328387 -2.05214517
C -0.74227475 1.30406758 1.14154569
C -0.38513470 0.45226760 -0.01577174
H 0.84142100 -1.74988525 -2.06648029
H 1.11869443 -1.10662956 0.63597788
H -0.26275079 1.37063921 2.92536439
