9

N -2.1928763 0.31113464 -1.4366894
C -1.2744005 0.45119393 -0.74981195
C -0.102167204 0.6230848 0.088310756
C 0.4699168 -0.5789936 0.7554883
N 1.1749734 0.05593127 -0.3434946
H -0.03292652 1.593932 0.57201064
H 0.92729765 -0.4588961 1.7347804
H -0.029548345 -1.5291687 0.5861413
H 1.0597312 -0.46821812 -1.2067355
