9

N -0.38717973 -1.50286769 0.01004642
C -1.35983562 -0.58355794 -0.41480970
C 0.72082786 0.61262821 0.00395236
C 0.18032559 -0.37183764 -0.76291969
N 1.26338217 1.43012674 0.71791381
H 0.86236326 2.35974669 0.80643911
H -0.10642835 -1.48501648 0.99694139
H -1.71170923 0.06489398 0.41573784
H 0.53825423 -0.52411574 -1.77330158
