10

O 0.03450641 -2.5529187 0.5157659
C -0.23803362 -1.9929689 -0.51165503
O -0.23654367 -0.6676551 -0.6981018
C 0.13386984 0.0960519 0.46220997
C 0.10324908 1.5122147 0.11211648
C 0.08973959 2.6866672 -0.13539235
H -0.53130513 -2.4871502 -1.4488218
H -0.566375 -0.120902576 1.2757591
H 1.1342555 -0.20448865 0.79012024
H 0.07663698 3.7311509 -0.36200067
