10

O -0.34844103 -0.81409596 1.06483287
C 0.21825472 -1.13775458 -0.20930983
O 0.81491081 0.33580659 -2.06534925
C 0.37220403 0.19454678 -0.95023129
C -0.51541131 0.52196758 1.09709082
C -0.13476841 1.19490435 -0.00078278
H -0.45960694 -1.81852259 -0.73286747
H -0.94412101 0.89295270 2.02249809
H 1.18070675 -1.63022621 -0.05165589
H -0.18372763 2.26042192 -0.17422522
