10

N 0.71575652 -0.93997200 1.37389297
C 0.16185631 0.13821709 0.73043864
O -0.01272503 1.21818319 1.25275643
N -0.21959607 -0.13550897 -0.58630578
C -0.77743916 0.81594541 -1.42337274
O -1.13719636 0.56097740 -2.54686268
H -0.17701006 -1.07365219 -0.95972442
H 1.12684623 -0.72071676 2.26772213
H 1.16736715 -1.66764338 0.84152979
H -0.84785957 1.80417005 -0.95007402
