10

N -0.63633466 0.07060166 0.020814592
C 0.7473265 -0.121120565 0.07533173
O -2.4529085 1.3743541 0.4345246
N 1.1508547 -1.3332825 -0.42582598
C -1.2545108 1.2321923 0.45174488
O 1.5047132 0.6980171 0.54967356
H 0.586066 -1.8081601 -1.1131202
H -1.257405 -0.6736506 -0.26506642
H 2.1493433 -1.4259639 -0.5279478
H -0.537145 1.9870123 0.7998709
