11

N -1.3441296 0.70832855 -1.0461133
C -0.2912603 0.15314579 -0.30129197
C -0.39663747 -0.45569128 1.0359132
N 0.8140943 -0.41159576 -1.0548459
C 1.5603819 -0.79403955 -0.108554386
N 0.26407537 0.8033562 0.9586526
N 1.0484874 -0.4947581 1.2079453
H -2.017572 1.1906875 -0.46857265
H 2.51845 -1.2972023 -0.2023723
H -0.9961634 1.3215857 -1.7742316
H -1.1597261 -0.72381663 1.7534708
