11

N 0.9888646 -0.8500523 -1.5261391
C 0.2479504 -0.22345106 -0.5570438
C 0.5875243 -0.2764794 0.81268543
N -0.11919226 0.38230202 1.7035443
C -1.1513615 1.0886991 1.2069285
N -1.5080969 1.1603491 -0.06148653
N -0.7993454 0.48330823 -0.96180946
H 1.530335 -1.6580397 -1.2667058
H 0.5410737 -0.9043303 -2.428645
H 1.4368241 -0.8574669 1.1670346
H -1.7545762 1.6551611 1.9116368
