11

N 0.58143482 -0.80803441 -0.97666493
C -0.36147430 0.03179605 -0.25959274
C 1.54625512 -0.81285454 -0.15949015
N 1.32519513 -0.01459932 1.02317543
C -0.12069875 -0.00909597 1.19308051
N 0.41789052 1.10495595 0.48843796
N -1.59062081 0.28147593 -0.89076568
H 2.49059174 -1.33686216 -0.27573726
H -1.45858628 0.55616454 -1.85742701
H -0.68214679 0.04060144 2.11578883
H -2.14784054 0.96645239 -0.40080502
