12

N -0.4621079 0.44213593 1.275674
C -1.3662003 0.087097935 0.355881
C 0.9000312 0.8116088 0.5680224
C 0.2594763 -1.1042411 -0.838759
N 1.9782352 1.2419444 0.9188653
C 0.8775216 0.23319793 -0.72785854
N -1.0797619 -0.46711457 -0.79173696
H -0.7615681 1.0395994 2.0338795
H -2.4197369 0.2962368 0.5625027
H 1.216593 0.8059393 -1.5881882
H 0.40156958 -1.6267155 -1.7843419
H 0.45594832 -1.7596892 0.0160601
