11

N 0.5621722 -1.4127967 -1.3638215
C 0.17493135 -0.4405279 -0.45061588
C -1.0222203 0.104751855 -0.10736979
C -0.71092814 1.132178 0.85520875
C 0.6294752 1.1201183 1.0125548
O 1.1886231 0.15679488 0.21181841
H 1.4286736 -1.8641073 -1.103712
H -0.16355528 -2.0945156 -1.5393355
H -1.995754 -0.17214413 -0.48216048
H -1.4146396 1.7827921 1.3548609
H 1.3232223 1.6874568 1.6125721
