11

N -0.8011994 1.5220965 0.45299613
C -0.3396885 -0.7357838 1.0203196
C -1.0159243 0.23683359 0.2019846
C 0.7459246 -1.0259722 0.24599634
C 0.60041857 -0.27437767 -0.98495984
O -0.78180707 -0.04777774 -1.1177465
H -0.48260325 -0.88165003 2.0815103
H 1.0995765 -0.5377518 -1.9152801
H 1.6400455 -1.56185 0.54009265
H -1.127258 2.0892036 -0.32969707
H 0.46251526 1.2170296 -0.19521603
