10

N -1.7687291 0.52840394 -1.9962102
C 1.1145401 0.2518505 0.62754434
C -1.3883232 -0.05722807 -1.0688444
N 1.1825745 1.2252052 -0.34770894
C 1.302656 2.0729072 -1.1503022
C 0.122215346 -0.6265066 0.768965
N -1.0261462 -0.7764808 -0.0038726272
H 0.17814298 -1.3400551 1.5835229
H -1.6681345 -1.5076549 0.27052853
H 1.9512041 0.22955866 1.3163776
