10

N -1.3476491 2.2237604 0.85394865
C -1.3984569 0.19822063 -0.7947952
C 0.6425575 -0.8025485 -1.0815006
N -0.1863021 -0.06464352 0.9742866
C -1.1252077 1.1856322 0.34870595
C 0.8151138 -0.6197646 0.27981302
N -0.5138914 -0.25140652 -1.4960861
H 1.3462808 -1.2157683 -1.7892013
H 0.017248476 0.2088415 1.9276472
H 1.7503066 -0.86232287 0.7771818
