10

N 0.60563195 -0.17260163 3.307055
C 0.3508708 -0.028507104 2.185783
C 0.041378777 0.13370636 0.79779744
N -0.65414995 1.1215047 0.2846748
C -0.6999057 0.8637453 -1.0544636
C -0.024172604 -0.29140657 -1.3494209
N 0.45012894 -0.7535651 -0.15398307
H -1.2178725 1.5255823 -1.7352248
H 0.15470974 -0.81007254 -2.2773476
H 0.99338037 -1.5883859 -0.0048701474
