10

O -0.58726776 0.3666932 -1.1183833
C -0.520531 -0.44061667 0.15890433
O 1.1440712 1.1549664 -0.064901665
C 0.63320357 0.18675244 0.78631586
C -1.6696801 -1.1478151 0.4529684
C 0.359666 1.2048366 -1.1037577
H -1.498761 -1.9850328 1.1394534
H 0.543285 1.9269506 -1.8866564
H 1.2623187 -0.056397915 1.6237506
H 0.3336954 -1.2103363 0.012306839
