10

O 0.031143842 -2.5515163 0.5163428
C -0.24072155 -1.9921607 -0.51053166
O -0.23318143 -0.66660047 -0.6996377
C 0.13566233 0.094851874 0.45909667
C 0.10525815 1.5121474 0.11394054
C 0.089167796 2.6867728 -0.13443545
H -0.5337072 -2.4878142 -1.4469129
H -0.560891 -0.12223631 1.2757608
H 1.1366104 -0.20533031 0.78795576
H 0.07065868 3.7318864 -0.361579
