11

N -2.0770004 -0.20467098 -0.7999843
C 0.8597372 1.125489 0.40655994
C 1.2675875 -0.13788605 0.46499544
C 0.14302117 -1.0098544 -0.020008568
C -0.9245195 0.018086601 -0.34703416
O -0.42845693 1.2794544 -0.065475434
H 0.3914206 -1.5924189 -0.9132223
H 2.233957 -0.48060322 0.8032199
H -0.22682303 -1.7098558 0.73682094
H -2.59495 0.6605695 -0.9281014
H 1.3560262 2.0516899 0.66222984
