11

N 0.56197256 -1.4134669 -1.3607112
C 0.17621313 -0.44106308 -0.4492487
C -1.022941 0.10240891 -0.1067215
C -0.7118604 1.1308773 0.8556259
C 0.62830555 1.1214647 1.0130486
O 1.188583 0.15643771 0.21158002
H 1.4328294 -1.8601246 -1.1075344
H -0.1626246 -2.0934265 -1.5415535
H -1.9962767 -0.17468189 -0.48288774
H -1.4151099 1.7817669 1.3548827
H 1.3209091 1.6898075 1.6135194
