11

O 1.3672348 1.1997987 -0.42200068
C 0.6971266 0.21505053 0.30839545
C -0.7932329 0.52560675 0.5867397
N -1.1148348 -0.71239203 -0.12784997
C 0.16646281 -0.9705206 -0.5258281
O 0.66903913 -1.7703669 -1.2765536
H 1.9758399 0.7486168 -1.0231385
H 1.2513705 -0.09985984 1.201653
H -1.0996561 0.5292383 1.6349812
H -1.1256411 1.4352579 0.07946072
H -1.9937087 -1.1004294 -0.43585908
