10

O 0.060742892 -1.4522834 1.6632705
C 0.037355073 -0.47624165 0.7388733
N 0.13707477 0.80098146 0.9510388
C 0.057266183 1.3654172 -0.31169268
C -0.09036994 0.40776637 -1.2651417
N -0.10260597 -0.7976941 -0.568044
H 0.16797426 -1.0006717 2.5133152
H 0.111275524 2.436811 -0.44415343
H -0.18606742 0.4447128 -2.339269
H -0.19264539 -1.7287984 -0.93819684
