10

N 1.294559 0.64588696 -1.1850346
C -0.8250247 -0.3625887 -0.018216822
O 0.2712912 0.074811876 0.77749485
C -1.862548 -0.87414044 0.88357234
C 1.3036574 0.5720365 0.0734161
N -2.708329 -1.2909564 1.5530676
H -1.2241042 0.46551934 -0.6125301
H -0.50702125 -1.1512688 -0.70666736
H 2.0937152 0.876142 0.765947
H 2.163804 1.0445577 -1.531049
