11

C -0.70012885 -0.49025089 -0.37861733
C -0.38127435 0.62116805 0.61440901
C 0.80104692 -0.88261143 -0.30506507
O -0.35953947 0.44224303 -1.45965642
C 0.69596935 0.65527905 -0.45984705
N -0.72038966 1.22298331 1.65805178
H 1.17077603 -1.39823562 -1.19433756
H -1.58751808 -1.11319294 -0.49627262
H 1.18805856 -1.29266956 0.63156024
H -1.56907478 0.83917992 2.06741805
H 1.46207428 1.39610725 -0.67764308
