11

C -1.940208 0.000176605 -0.17731047
C 1.4634966 0.07661246 1.0896397
N 0.2354059 0.21583977 -1.0768608
C 0.2719726 0.06957973 0.20152436
C -1.1398269 0.14132012 -1.3472767
O -0.9343071 -0.12579203 0.7847369
H 2.3495479 0.31959665 0.5040352
H 1.5859028 -0.9063278 1.5538088
H -1.5244585 0.3676588 -2.3357456
H 1.3244791 0.8108795 1.886543
H -1.692004 -0.9695438 -1.0830945
