11

C -0.5312496 -1.0786506 -1.413313
C -0.018077241 -0.24947418 -0.2869873
N 1.1576071 -0.26292494 0.2493189
C 1.0894175 0.6913541 1.2573272
C -0.1437588 1.23374 1.2681661
O -0.87078816 0.6389781 0.2773111
H -1.4222623 -1.6367124 -1.1135287
H 0.24738976 -1.7797346 -1.714857
H -0.7996133 -0.45431656 -2.272406
H 1.9354947 0.91046995 1.8941017
H -0.6441597 1.987271 1.8548672
