11

C 0.5914134 -0.73868364 -1.5415734
C -0.6752249 0.4537327 1.6502484
N -0.013338722 -1.0443228 -0.24173427
C 0.804273 0.7501968 -1.6289123
C -0.12996972 0.0700076 0.32400644
O 0.3487304 1.1709814 -0.46766824
H -1.0213486 -0.43626457 2.172881
H -1.502041 1.1577241 1.5212202
H -0.051870503 -1.0773833 -2.365196
H 0.09922071 0.95393914 2.2394803
H 1.5501559 -1.2599274 -1.6627522
