12

C 0.39030707 -0.8619647 -0.0012074031
C 0.10409425 1.3818249 1.0157655
N 0.99825406 1.2280507 0.092632085
C -0.8201424 -1.0130646 -0.8627925
O -0.5844313 0.38605046 1.36503
H -0.6777538 -1.9147333 -1.4769568
H -0.0875022 2.3486972 1.501651
H 1.3267462 -0.86187935 -0.5476681
H 1.5606364 2.0299664 -0.17321192
H -0.910758 -0.16371739 -1.5451739
H 0.43372545 -1.4506977 0.9063562
H -1.7331756 -1.1085328 -0.27442437
