12

C -0.77977753 -0.31393536 0.56541169
C -1.02221010 -0.76063980 -0.86597840
N 1.85398207 0.15144557 0.16631070
C 1.08740076 1.12972958 0.41273447
O -0.22908340 1.00711763 0.62589334
H -0.10991279 -1.00574414 1.08602779
H -1.71911983 -0.23305615 1.11655358
H 2.80926824 0.47643260 0.05438166
H -1.53297064 -1.72972877 -0.86729897
H -0.07248606 -0.86977899 -1.39625967
H -1.65070979 -0.03794305 -1.39608650
H 1.36561918 2.18610077 0.49831049
