12

C -0.35000643 -1.1042709 0.9803356
C -0.26048428 -0.62792724 -0.46714967
N -0.2648458 0.8198746 -0.58379805
C 0.87756914 1.5505238 -0.49614066
O 1.9947507 1.0815367 -0.4112163
H -0.34766853 -2.197296 1.0242776
H -1.2700642 -0.74633116 1.4573267
H 0.50663686 -0.7306814 1.549192
H -1.0940537 -1.017862 -1.0587391
H 0.6707368 -0.9812238 -0.9225294
H -1.143712 1.3151847 -0.53990537
H 0.68114156 2.6384726 -0.53165317
