14

C -2.28370642 0.82055551 -0.01129884
N -1.01075029 0.50492162 -0.68142957
C 0.04086759 -0.37934932 0.23679364
O -0.51472886 -1.02715642 1.08481512
N 1.18858566 -0.10973161 -0.27270746
C 2.29003457 -0.74776574 0.29010180
N 3.45888718 -0.51096093 -0.15329532
H -2.09472330 1.55009059 0.77835704
H 2.07653826 -1.45051742 1.11004136
H -2.65568697 -0.10112689 0.43736941
H -3.00124477 1.22340758 -0.72873872
H -1.15181175 -0.04332336 -1.52787034
H 4.13040479 -1.05896198 0.38088657
H -0.47266556 1.32991843 -0.94302501
