11

N -0.3567545 -1.5047613 -0.30791125
C -0.63050663 1.5342064 0.43445653
O 0.40838557 0.44050294 1.3691487
C 0.30451775 -0.47726852 -0.90841603
C 0.5363314 0.74084556 -0.041137103
O 0.644864 -0.46198547 -2.0760205
H 0.112626135 1.4234993 1.6895301
H -1.5478538 0.9411421 0.30065763
H -0.44898835 -1.5383773 0.69494116
H -0.47944343 -2.3509262 -0.842645
H 1.4568219 1.2531228 -0.31260455
