12

O -1.2615517 -0.6598582 1.232207
C 0.12673375 -0.48545223 1.1842502
C 0.58322173 0.7032395 0.34319764
O 0.85570085 0.40356556 -1.0434729
C -0.14778921 0.023772592 -1.8272064
O -1.2869235 -0.18605252 -1.4856545
H -1.5819616 -0.63466835 0.31497112
H 0.6595821 -1.3852788 0.8332454
H 0.45352054 -0.29619822 2.2127817
H 1.5492574 1.0713568 0.6961433
H -0.16105591 1.5039852 0.39930862
H 0.21126577 -0.058411222 -2.8597713
