9

O 0.7386769 -1.5294226 0.14205825
C -0.42286822 -1.22657 0.6829166
C -0.6726429 0.17393646 0.14016418
O -1.0314488 1.0516024 1.1485242
C 1.2632074 -0.4229234 -0.59052193
N 0.53420293 0.5920167 -0.60242796
H -1.1730987 1.9145521 0.7423729
H -1.4681188 0.039523747 -0.6203584
H 2.2320902 -0.5927153 -1.0427278
