9

O -0.42128667 -1.58625477 0.45964214
C -0.43314107 0.54571590 -0.13012035
C -1.25205589 -0.56616495 0.51135095
O -0.45061003 1.69626393 0.63914109
C 0.84727286 -1.18420190 -0.05538857
N 0.92633238 0.02146508 -0.37446446
H -0.89070870 0.68640619 -1.13016104
H 1.59088227 -1.96963897 -0.10215368
H 0.08331522 2.35640964 0.18215397
