9

O -1.3785427 -0.20108785 0.9049904
C 0.085753344 0.20242777 -0.6365504
C -0.13745295 -0.6123304 1.279861
O 0.66617346 0.24909672 -1.8550084
C -1.336595 0.276076 -0.3979946
N 0.79376954 -0.41612557 0.43391564
H -0.05138143 -1.0493569 2.265915
H 1.6227015 0.24118687 -1.7161031
H -0.26442555 1.3101134 -0.27902514
