10

O -1.7548442 -0.051172398 -1.1791257
C -0.5265937 -0.18319462 -0.6909573
C 0.7368548 -0.16500162 -1.1350209
N -0.17869985 -0.58499306 0.65361726
N 1.5068427 0.5479039 1.0654202
C 0.290238 0.49488235 1.4604787
N 1.231445 -0.5752976 0.17028889
H 1.3084102 -0.042402435 -2.0397882
H -0.23536155 1.0136746 2.253449
H -2.3782914 -0.454399 -0.5583623
