11

C 0.52967017 -1.66777747 -0.71103663
N 1.44792559 -2.36628883 -0.52624043
C -0.52206281 -0.77074063 -0.98893398
C 0.04171080 0.77005119 0.99829146
N -0.13585708 0.59122056 -0.47255473
H 0.33131310 1.79825124 1.23603487
H 0.73215584 0.84851096 -0.94442751
H 0.81044844 0.06612487 1.32482556
H -0.83744709 1.24506956 -0.81853824
H -1.49071221 -1.03724727 -0.57627289
H -0.90714424 0.52282624 1.47885266
