11

C 0.43605077 -1.7145143 0.6617446
N 0.91924286 -2.094629 1.6553738
C -0.05937177 -1.2326043 -0.5672239
C -0.33408418 1.1797041 0.2966316
N 0.2811704 0.23117264 -0.6773546
H -1.4181987 1.1126318 0.18446143
H -0.049987495 0.85209113 1.299155
H 1.2975116 0.3016591 -0.61109054
H -1.1269583 -1.3541163 -0.7256236
H 0.050548274 0.5144178 -1.6292145
H 0.0040764436 2.204187 0.11314064
