11

O 1.2385025 1.1551925 1.8115798
C -0.6432636 0.672148 -1.1004078
N -0.21843983 -0.5624606 -0.856799
C 0.67268056 0.050481122 1.3674018
O -1.3855668 0.60373276 -2.2199206
C 0.5426547 -0.8856988 0.3152758
N -0.1576933 -0.84756535 1.6814598
H 0.8782896 1.3525552 2.6904206
H 1.2571026 -1.6931255 0.15855244
H -0.4914747 -1.3460597 -1.4489206
H -1.6927917 1.5008004 -2.3986423
