11

N -0.77210236 0.85089976 0.5392526
C -1.1796725 0.03619605 -0.5299906
C -0.19114867 -0.7714435 -0.91951776
C 1.0101601 -0.5064738 -0.05399836
C 0.5352889 0.59769976 0.8974829
O 1.1452731 1.1527616 1.7817976
H -2.1862395 0.12929201 -0.91454947
H -0.23905392 -1.4983853 -1.717394
H -1.3408687 1.5433767 0.998976
H 1.8867613 -0.15651847 -0.609581
H 1.3316022 -1.377405 0.5275221
