11

C -1.37812233 -1.09696372 0.84468039
C 0.68483527 -0.10030805 -0.06844339
C 0.81989006 1.35370832 -0.01907802
O 1.27912937 0.60645555 -1.14001541
C -0.64939694 -0.75079035 -0.38254788
N -1.92650320 -1.35392220 1.82839667
H 1.59774428 1.80390105 0.59604028
H 1.37441807 -0.71275700 0.51241238
H -0.05314304 1.97679152 -0.20758552
H -1.25422858 -0.06655296 -0.98890400
H -0.49462297 -1.65956232 -0.97495550
