11

C 0.75268173 -0.641267 -1.375061
C -0.8794803 0.86710036 1.6492865
C -0.8144558 0.3775379 0.26660782
O 0.79145354 -1.3773997 0.7736071
C 0.53902507 -0.35784048 0.03246424
N -0.93137723 1.2919276 2.7241218
H 1.3236247 0.50533134 0.040042013
H -1.628069 -0.3368409 0.10192118
H 0.5594285 0.05009094 -2.1919374
H 1.2277976 -1.5974051 -1.594924
H -0.9406289 1.2187649 -0.42612848
