10

O -2.3875632 0.95578563 0.40653843
C -1.767022 -0.058304995 0.62496996
C -0.35628322 -0.22469795 0.21077378
N 0.27530816 -1.3412141 0.46404773
O 1.53546 -1.1755887 -0.031674426
C 1.6373599 0.049423233 -0.5769641
C 0.47008458 0.71885914 -0.46265167
H -2.2093666 -0.92518497 1.1481533
H 2.6029713 0.28949827 -0.99996585
H 0.19905072 1.7114245 -0.78322715
