9

O 1.3706682 -0.68356264 -1.4222443
C 0.2196521 -0.14333919 0.544361
C 1.1593924 -0.90913606 -0.24917653
O -1.6432164 0.19370161 -0.22021697
C -0.3620895 1.0448512 -0.09412259
N -0.06209449 2.0365791 -0.70113206
H -2.2965257 0.6488714 0.3192211
H -0.110340185 -0.51439023 1.5057551
H 1.7245538 -1.673575 0.31755516
