9

N -0.12289799 1.2669704 -0.7590978
C -1.2752843 0.4917952 -0.25462124
C 0.07662622 -0.047350798 -0.2475334
C 0.9622967 -0.92073816 0.09553072
N 1.8038509 -1.8074849 0.30106747
H -1.9770466 0.18065257 -1.0231936
H 2.0674608 -1.9046905 1.2799659
H -1.7172168 0.7683807 0.70070285
H 0.18221094 1.9724653 -0.0928209
