10

O -0.66108245 0.66675967 1.548178
C -0.0735632 0.5471216 -1.3221278
C -0.3921802 -0.061949246 0.49917305
N -1.1287478 0.13398936 -0.6818777
N 1.1474619 0.43983364 -0.68015295
C 0.5471909 -1.191376 0.6239452
N 1.4784356 -0.8563294 -0.17748395
H 0.47368637 -2.1089675 1.1957612
H -1.2493176 1.3905379 1.2871212
H -0.14188343 1.0403802 -2.2925363
