10

O 0.33058208 -1.1369369 -1.7591954
C 0.109194964 1.1370814 -0.75094616
C 0.07072208 -0.34802613 1.5323628
N -0.6505273 1.096831 0.48743364
N 0.16076818 0.9193434 1.6793041
C 0.03016534 -0.19602911 -0.8774404
N -0.7206081 -0.3906033 0.3425802
H 0.38833618 -1.1707754 2.1613219
H -0.19828117 -1.922639 -1.5570613
H 0.4796477 2.0117538 -1.2583596
