11

N 0.98785484 -0.8482467 -1.525145
C 0.25003916 -0.22198324 -0.55597574
C 0.5886983 -0.27713746 0.81121826
N -0.12059665 0.3809359 1.7019768
C -1.1509733 1.0866591 1.2083175
N -1.509573 1.1570187 -0.063483156
N -0.8025791 0.48355308 -0.96283805
H 1.5344731 -1.652854 -1.2637876
H 0.54053104 -0.9000002 -2.4279366
H 1.4365693 -0.8605109 1.1661566
H -1.754444 1.6525658 1.9114968
