10

O 1.9020468 0.41998756 1.6771696
C 0.81932616 -0.08376227 1.5537342
C 0.26829195 0.8275593 -0.69663686
O -1.4487584 -0.4965308 -1.8043765
C 0.11994519 -0.21519998 0.20380047
O -0.6432434 -1.1913065 0.06829389
H 1.1709216 1.4295627 -0.71532345
H 0.24364097 -0.5274683 2.3870366
H -1.7818146 -1.3680748 -1.5429485
H -0.6503565 1.2052332 -1.1307496
