17

C -0.1381557 -1.2525176 -1.4020548
N -0.0824889 1.3902545 1.1409928
C 0.09384495 0.30238745 0.49173692
O 1.1606495 -0.46624252 0.7715526
N -0.69480765 -0.26704404 -0.4957021
C -1.8037274 0.50340146 -1.0061109
C 2.00533 0.0082256105 1.8124926
H -0.8854115 1.9038227 0.80145127
H -2.4759033 -0.16578422 -1.547864
H -1.486581 1.3032931 -1.6933113
H 2.4210868 0.9885363 1.5637468
H 1.4578505 0.08577944 2.7562082
H -2.370119 0.9410645 -0.17911278
H 2.7992673 -0.73307604 1.8894193
H 0.5416328 -1.9079278 -0.8572139
H 0.41037446 -0.78117025 -2.2300236
H -0.9528419 -1.8530029 -1.8162068
