11

C 0.050890654 -1.6662138 0.28705305
N 0.24300875 -0.25295332 0.5725601
C 0.38002586 0.5880731 -0.51450753
O 0.8159703 0.29851207 -1.5972128
C -0.65340036 1.9831903 -0.37318388
O 0.5630601 2.0341372 0.021995522
H 0.7608952 -1.9589313 -0.4884086
H -0.32156494 0.11823081 1.3236798
H -1.1373917 2.9882963 -0.36396253
H 0.2620725 -2.2390997 1.1921712
H -0.9635665 -1.8932416 -0.060184322
