11

C -1.75296162 0.64571408 0.10223682
N -0.41850270 0.32960784 -0.36255363
C 0.46811011 -0.35075416 0.38450586
O 1.65616015 -0.47147816 -0.41917482
C 2.67116286 -1.10974619 0.12125434
O 0.35576288 -0.78793496 1.48779879
H -1.90768940 1.72751376 0.11342210
H -0.11783473 0.61760394 -1.28324027
H -2.50224722 0.17725876 -0.54174213
H -1.85714577 0.25736602 1.11837766
H 3.40518505 -1.03515112 -0.72088474
