11

C -0.50616944 1.4244831 1.1022313
N -0.37130758 0.5260428 -0.025310822
C 0.40470627 -0.57107013 0.0095936
O 1.0888113 -0.9907334 0.8910057
C 0.9505501 -2.3039327 -1.4729898
O 0.2666829 -1.1974107 -1.279044
H -0.18360205 2.4322345 0.8288383
H 0.12866339 1.0506356 1.9093472
H 0.6389058 -2.5312939 -2.524054
H -1.5443468 1.4545531 1.4440964
H -0.8728937 0.7064922 -0.88371414
