12

N 1.5641268 0.30681953 1.0450553
C 1.2562034 0.595761 -0.23069842
C 0.75175244 -0.0110588325 1.9995584
C -1.0205083 -0.2975658 -0.5473171
N -2.6398368 -0.9368802 -2.4366794
C -1.910126 -0.6505834 -1.5744476
N 0.14888631 0.28852352 -0.89919364
H 0.20474975 0.48140886 -1.8934174
H -1.2456189 -0.54086983 0.4715051
H 1.1886075 -0.23705809 2.9717517
H 2.0374336 1.0355691 -0.8409923
H -0.3356693 -0.03406589 1.9348748
