10

O -0.6755759 2.272084 0.44734672
C 0.6978424 0.28457138 0.872142
C -0.6631581 0.009242185 -0.6889884
N 0.39188343 -0.8595922 -0.02510502
C -0.24868809 1.1379868 0.31628644
H 1.1325032 -1.1511085 -0.66615975
H 1.4496082 0.26196256 1.6455432
H -0.4307901 0.17037268 -1.7435641
H -1.6563438 -0.42655903 -0.5686994
H 0.0027189301 -1.6989598 0.41119838
