12

N -0.2930857 -0.83252525 1.7700558
C 0.09803326 0.29229265 1.085531
O 0.8510874 1.1304338 1.5294833
N -0.49939337 0.3734428 -0.18494277
C 0.2683883 0.9369426 -1.2721918
C -0.06848429 -0.510798 -1.2569281
H -1.1384944 -1.2943176 1.4735347
H -0.10039582 -0.82068765 2.7599852
H -0.27907765 1.6128061 -1.9236554
H 1.2942638 1.2178972 -1.0527744
H -0.8666831 -0.8959202 -1.8897994
H 0.73384154 -1.2095665 -1.0382984
