12

N -0.43737106 0.49621310 1.48236875
C 0.50987671 0.39523796 0.57220797
O 1.76366918 0.57158399 0.99740490
N -1.29208540 0.29983290 -1.03708251
C 0.14874298 0.16938116 -0.78767828
C -0.79450793 -0.99277637 -1.08708339
H -1.00767752 -1.72249306 -0.29092543
H -0.24220465 0.81765693 2.41875529
H -1.36519635 0.62083588 1.06437930
H 2.36614239 0.40654410 0.25717392
H -0.56389753 -1.47171978 -2.05033596
H 0.91450916 0.40970315 -1.53918483
