12

N -0.8573502 -0.5075931 -1.3572857
C 0.40644604 -0.17056756 -0.6906228
O 1.2501512 1.352984 1.0191222
N -0.9686612 0.98769176 0.84917516
C -0.28536966 -1.5291435 -0.61553425
C 0.24457233 0.71648115 0.41285396
H 0.30504814 -2.3186595 -1.1038935
H -0.7157159 -1.8537133 0.34428436
H 2.0861228 1.0213925 0.65946597
H 1.3703125 -0.11886294 -1.2171232
H -1.6939555 0.6907987 0.18818463
H -1.1416004 1.7291915 1.511373
