12

N 0.31181347 0.10616134 0.57807267
C 0.0061988654 1.5199066 0.45628506
O -0.8458602 -1.7248515 -0.07602928
N 0.8396709 -0.99421126 -1.4130337
C -0.9715053 0.5858561 1.1622907
C 0.11116567 -0.8596603 -0.30927464
H 0.7262073 2.156815 0.9736201
H -0.24893792 1.8821502 -0.54283714
H 0.65429145 -1.7482744 -2.0552356
H 1.6523799 -0.4092793 -1.5464978
H -0.8062429 0.6525976 2.2466073
H -1.4291815 -1.1672099 0.52603257
