10

N 0.5820226 0.074782826 -1.3009927
C -0.29227102 -0.71248406 0.5397354
C -0.3168752 -0.7883341 -0.9074514
N -1.0384346 0.17113078 1.2015302
C 1.160034 0.5723138 -0.1214035
O 1.0054593 -0.3933162 0.86272335
H -1.0191944 -1.283234 -1.5668601
H -0.21330172 1.1095549 0.6087661
H 2.1291215 1.0585576 -0.17085195
H -1.9965607 0.19102842 0.85480434
