10

N 0.07045957 0.034055833 -1.4244397
C 0.29549548 -0.0005505166 0.8632528
C -1.2284472 -0.05940249 -0.78960544
N 0.766681 0.0038065936 2.0322773
C 0.9278178 0.06758963 -0.48763227
O -1.0352784 -0.07871053 0.6233057
H 1.9980469 0.13782299 -0.66385263
H -1.7340147 -0.9787332 -1.100788
H 1.7824101 0.07143701 2.0102317
H -1.8431706 0.80268466 -1.0627493
