11

N -1.6067779 -0.109488755 0.67041135
C 1.6953473 -0.014748046 -0.769027
C -0.35648343 0.92368263 -0.8369173
O 2.8482356 -0.2181266 -1.0243634
C -0.24191314 0.19135778 0.28481302
O 0.87837416 0.8390901 -1.4760555
N 0.94325346 -0.5563281 0.2830866
H -1.8907677 0.13577752 1.6190767
H 1.4688841 -0.8270496 1.1014339
H -1.9348644 -1.0420442 0.42347813
H -1.8032879 0.67787725 -0.2759365
