10

N -1.3192266 -0.64184123 -1.1617115
C -1.2074608 -0.74724644 0.09138443
O -0.1805355 -0.21606459 0.77388287
C 0.76758885 0.47490662 -0.031399086
C 1.819491 0.98159087 0.85329574
N 2.6745324 1.4034091 1.5068995
H -2.1634283 -1.1088434 -1.4855393
H -1.87818 -1.2530166 0.7904609
H 0.2898021 1.3066686 -0.55861056
H 1.1974168 -0.1995629 -0.77866256
