10

N -0.3569331 0.82879025 -2.0001285
C -0.040958196 0.20180207 -1.0222446
O 0.048353385 -0.86516047 1.0684767
C 0.3483341 -1.0539209 -0.32026005
C -0.19676152 0.4422219 1.3339655
N -0.19014989 1.3331611 0.45244345
H -0.37697253 0.60798925 2.394969
H 1.4253558 -1.2184336 -0.43304077
H -0.4483612 1.6401291 -0.7897602
H -0.21190675 -1.9165785 -0.6844206
