11

O 0.26490092 -1.3188092 -1.557638
C 0.7233399 0.38318935 0.0056368858
C 0.41539866 -1.0168091 -0.28298956
O 0.062913656 0.7237378 1.1542836
C -1.0833553 -0.079977565 1.0230314
N 1.4189653 1.1011028 -0.7786809
H -1.4628651 -0.40622982 1.9912211
H 0.38657194 -0.5044103 -2.0856724
H -0.45645836 -1.261593 0.571736
H 1.5645243 2.0344143 -0.39803553
H -1.8339357 0.3453849 0.35710773
