11

O 1.6776943 0.65942544 -0.519437
C 0.76151454 -0.049959883 0.25282353
C -0.33545622 0.6920049 1.0430831
O -1.35029 -0.1456947 0.4163034
C -0.42298347 -0.6876976 -0.43818697
N -0.5588504 -1.3744404 -1.4783771
H 1.2524178 0.9009518 -1.3520602
H 1.3205941 -0.7552551 0.8738302
H -0.3449619 0.5793625 2.129141
H -0.4582543 1.7384431 0.75157684
H -1.5414246 -1.5571399 -1.678697
