11

O -1.3447057 -0.13556324 -2.0559263
C -0.6741776 0.4917613 -1.150779
C 0.846572 1.1961317 1.057181
O 0.5422039 -0.20076934 0.9006107
C -0.18545033 -0.5859438 -0.15531863
N -0.48945093 -1.7939564 -0.3804525
H -0.06647159 1.7869204 1.1583053
H 1.4321722 1.2482144 1.9759246
H -1.3566576 -1.1230407 -1.8669753
H -0.13597964 -2.452864 0.3039638
H 1.4319452 1.5691092 0.21346645
