11

O 1.4508603 -0.61994445 -0.12273767
C -0.78244054 -0.16159397 -1.1217101
O -0.8315339 -0.22956741 -2.307575
C 0.23333843 0.1729398 -0.04403443
C -0.90232 -0.1537145 0.91687024
C 1.3174901 1.1625803 0.05685753
O -1.7811134 -0.38196653 -0.21430102
H -0.79130995 -1.0649552 1.5098999
H 1.5828933 1.4194437 -0.982686
H 1.7365744 -0.8301176 0.77929354
H -1.2324388 0.68689597 1.5301228
