11

O -1.8009837 0.65922564 -1.641112
C -1.1584114 0.028814597 -0.8658251
O -1.211283 -1.3159869 -0.6100961
C -0.21962474 -1.2408876 0.45527405
C -0.044097725 0.2343322 0.13681805
C 1.1281153 1.0981427 0.06586166
O 0.090905055 1.296673 1.0254312
H 0.6278445 -1.8968904 0.25417942
H -0.6713985 -1.4588943 1.4259925
H 1.1873374 1.8545227 -0.71610487
H 2.0715966 0.7409479 0.4695813
