12

N -0.9304855 2.0791643 1.7926563
C -0.85410964 1.2755451 0.96700275
C -0.7601437 0.2230911 -0.06613809
C 0.3951594 0.4744635 -1.0863563
N 1.4839867 -0.4145705 -0.6854348
C 1.0054533 -1.1975683 0.19431214
N -0.34524438 -1.0563899 0.50999004
H -1.7325034 0.13772456 -0.5599572
H 0.070301734 0.21741778 -2.0994549
H 0.72571456 1.5164417 -1.0916713
H 1.576972 -1.9916525 0.6685233
H -0.6351012 -1.2636666 1.4565281
