11

N 0.56006545 0.8813384 0.91330177
C -0.29148838 -0.39840722 -0.9929512
C -0.65655684 -1.0728742 1.2222589
C -0.47827393 0.35705715 1.4850115
C 0.8689137 0.4007043 -0.40883464
O -0.63038003 -1.4172341 -0.03179725
H -1.1681589 0.24489886 -1.1335778
H -1.0178082 0.86608064 2.277601
H -0.04674368 -0.91558117 -1.9212699
H 1.082968 1.2641758 -1.0510536
H 1.7774627 -0.2101585 -0.35868874
