11

N 1.04659019 0.39205891 0.82188174
C 0.08644855 -0.00219935 1.59812910
C -0.66336209 0.00843014 -0.88855251
C 0.80938478 0.27385820 -0.59381712
C -0.62496147 -1.19185689 1.12469683
O -1.05340522 -1.13439547 -0.10211201
H -1.27679357 0.86277791 -0.57877603
H 1.12014329 1.20851030 -1.07724454
H 1.43821135 -0.53123134 -0.99072671
H -0.86504039 -0.24673711 -1.92939832
H -0.01721516 0.36078458 2.61591924
