10

O -0.56438637 -1.7111012 -0.5908714
C 0.6588923 0.34869388 -0.5419169
C -0.342156 -0.66815215 -0.057686027
O -1.0998409 -0.36327872 1.1052521
C -0.86997813 0.80571556 1.6655084
O 1.4313204 -0.17174338 -1.5842135
H -1.5797325 0.78120315 2.5231972
H 0.9540086 -0.92265236 -1.961839
H 0.10251884 1.2498538 -0.8450786
H 1.3093542 0.6514613 0.28764766
