9

N -0.12082601 -0.84777194 0.4501528
C 0.3586937 0.3766018 0.8599249
C 0.27672142 1.1776901 -0.24473955
N -0.2359899 0.48270303 -1.3125733
C -0.46272042 -0.72644323 -0.86205024
H -0.2007856 -1.6780223 1.0130472
H 0.699643 0.5476347 1.8698387
H 0.55538595 2.2187052 -0.34063172
H -0.87012196 -1.5510979 -1.4329689
