9

N -0.37027672 -1.06986277 0.57932927
C 0.89381919 -0.93145303 0.44408752
C 0.27734958 0.88674688 -0.48006761
N 1.35768067 0.25062604 -0.20109309
C -0.93014831 0.12944468 -0.02121786
H 1.61703165 -1.66102219 0.79408158
H -1.52431649 0.68173440 0.71562155
H 0.28252367 1.84742948 -0.98521153
H -1.60366307 -0.13364403 -0.84552994
