9

N -1.3913666 -1.1317736 0.09237161
C 0.66111594 0.7926348 -0.14065143
O 1.0017503 1.9022148 -0.48830968
C -2.5789309 -1.2158421 -0.18579546
C -1.952519 0.3681155 -0.6596426
C -0.7326025 0.3806279 -0.33585912
N 1.4550076 -0.14690465 0.4280715
H 1.1195086 -1.0560528 0.6923542
H 2.418037 0.10698026 0.5974611
