9

N 1.4128071 -0.6138811 -0.91428804
C 1.489157 -1.3650283 0.98829913
O -1.376365 -0.16416049 1.5181222
C -0.7297382 0.028249882 0.5105162
C 0.5654547 -0.67826355 0.29812768
C 2.284915 -0.22811538 -0.07528875
N -1.08492 0.8470673 -0.50683504
H -0.5799759 0.8664406 -1.3777193
H -1.981335 1.3076913 -0.44093415
