10

C -0.22338556 0.9743262 -0.37125656
C -0.6268634 -0.039328482 -1.2370763
N -0.4550299 -1.3351892 -0.9887755
N 0.1305796 -1.7122645 0.13941184
C 0.540611 -0.7885983 1.0066797
C 0.38840467 0.58204746 0.8023146
H -0.3880867 2.0177019 -0.61559427
H -1.1166639 0.18525474 -2.1830664
H 1.0116323 -1.1792442 1.9057447
H 0.73880196 1.2952944 1.5416186
