10

C -0.26940792 1.14625064 -0.31623235
C -0.52154646 -1.16257334 -0.25789863
N -0.13600934 0.77310736 -1.74000460
N -0.83804901 -0.01474857 -0.92110229
C 0.43487726 -0.79627181 0.71303728
C 0.69398982 0.55896906 0.62271256
H 1.38653566 1.12129588 1.24020821
H -0.80505772 -2.13326569 -0.63653806
H 0.94435380 -1.50038078 1.36188313
H -0.88968602 2.00761727 -0.06606485
