10

N -0.6550136 -1.216052 1.1902965
C -0.17844258 -0.30460086 0.25735274
C -0.78083676 0.7297972 -0.37538433
O 0.14038494 1.2654892 -1.2498267
C 1.2315501 0.5168539 -1.0828348
N 1.1199288 -0.426218 -0.20885853
H -1.3191708 -0.8359871 1.8487939
H 0.10193106 -1.6874802 1.6652546
H -1.755089 1.1920195 -0.36030257
H 2.094758 0.76617825 -1.6844906
