11

N 0.35516372 0.5896653 -1.8183762
C 0.2627419 -0.9801998 0.13919091
C -0.6569716 0.4836024 1.6178153
N -0.55042595 1.0888491 0.35650513
C 0.053915888 0.1962014 -0.51342213
N -0.12087446 -0.74913794 1.4552047
H 0.0067037726 1.5526007 1.3740555
H -0.24085636 1.3497723 -2.1156204
H -0.05786359 -1.4238006 2.199214
H 0.62056845 -1.9408247 -0.20660695
H 0.32789826 -0.16672845 -2.4879599
