11

C 0.98748523 0.7000699 -0.047833383
N -0.10944588 -0.05217207 0.13891631
C -0.84467155 -0.34198648 1.3545598
N 1.3341249 0.6981749 -1.3220532
C 0.38351998 -0.09282403 -1.8769196
N -0.514106 -0.5712302 -1.038285
H -0.38168156 0.19739968 2.183568
H 0.35124338 -0.32522488 -2.9343565
H 1.4932367 1.2213085 0.753206
H -1.8805195 -0.01789568 1.2360723
H -0.8191859 -1.4156195 1.553125
