11

O -1.9729133 -0.7035851 -1.7222825
C -0.2558981 -0.25254384 -0.14395595
C 0.95568484 -0.5506136 0.5081021
C 0.69187784 1.5554277 0.57668626
N 1.5290304 0.56858736 0.9463902
C -1.0524185 -1.1014211 -1.0598211
N -0.38482693 1.1967256 -0.1281096
H 1.4058387 -1.5267674 0.6551611
H -0.72752285 -2.1627517 -1.0755234
H 0.8673306 2.5929263 0.83808935
H -1.056183 0.38401598 0.60526365
