10

O -1.8082988 -0.54240006 -1.2994417
C -0.8174806 -0.10332842 -0.65927136
C 1.1335778 -0.073426284 0.797122
C -0.9472344 1.1119753 -1.3370328
N -0.0012693988 -0.73755014 0.17860663
H 1.2373004 0.9136095 0.3340656
H 2.0525815 -0.6401827 0.61705303
H -0.1555872 -1.7272813 0.30496028
H 0.9880853 0.05408222 1.8743236
H -1.6816747 1.7445018 -0.8103853
