10

O -0.9595178 2.219858 0.07267941
C -0.19696134 0.4747243 -1.3487662
C 0.350746 -0.9872721 0.26690692
C -0.51592356 1.0950512 -0.050724495
N -0.25366613 0.15163656 0.89991045
H 0.8082373 0.7469131 -1.7034408
H 1.4434149 -1.0122907 0.31571418
H -0.6074158 0.17176385 1.8433208
H -0.08382253 -1.9456042 0.56519616
H 0.014909124 -0.9147798 -0.8607967
