10

O 0.4689558 1.0079683 -2.1496968
C 0.5093295 0.52827066 -1.0374734
C 0.15335019 0.04159463 1.0335932
C -0.75245756 -0.48025346 -0.03014618
N 0.94995576 0.92861396 0.19520116
H 0.8365695 -0.58324564 -0.89399564
H 0.73585576 -0.6819438 1.611994
H -1.6463742 0.10596879 -0.23729791
H -0.40046632 0.6768142 1.7415131
H -0.85471845 -1.5437877 -0.23369172
