10

O -1.6841052 -0.59556985 -1.5300057
C -0.80417144 -0.26808134 -0.7785598
C -0.37639913 -0.6172975 0.6611531
C 0.7702109 0.3992136 0.44429198
N 0.24226514 0.60774857 -0.90064216
H -1.1088415 -0.34812993 1.4242095
H -0.06565028 -1.6560413 0.7924911
H 0.7269082 1.2888827 1.0799707
H 1.7784524 -0.023737175 0.4652795
H 0.52133095 1.213012 -1.6581885
