12

N -1.10257305 0.45981602 0.83066798
C -0.05932361 -0.41630031 0.27084752
C -0.93306524 1.50739294 0.13506543
N 0.13163965 1.40772090 -0.85406510
C 0.15416098 -0.04833837 -1.18264513
N 0.15949598 -1.74061713 0.75320642
C 1.08380461 0.44497767 -0.22859354
H -0.67332798 -2.30336364 0.61748943
H 0.34796603 -1.71571101 1.75050525
H -1.49735257 2.43100668 0.22381014
H 0.22650866 -0.52844492 -2.14929442
H 2.16206686 0.50186109 -0.16699418
