11

C 0.5940519 0.7325052 2.242895
C 0.30372941 0.1662341 0.92821
C 0.072960556 -0.31400248 -0.15341036
C -0.14429508 -0.9691659 -1.4428136
O 0.32772574 -2.0540698 -1.7126266
N -0.93231505 -0.25973046 -2.3009021
H 0.4549017 -0.021889525 3.0234995
H -0.062122487 1.5790886 2.46326
H 1.6303184 1.0779597 2.2873628
H -1.0393562 -0.6237397 -3.2351708
H -1.2055988 0.68681043 -2.1003034
