11

C -1.5136329 -0.33211917 0.74965435
C -0.45389366 0.31159484 -1.6683267
C -0.7500244 0.045162976 -0.46107906
C 0.8733548 -0.29281527 -0.44033182
O 1.1893077 -1.4412574 -0.2621106
N 1.6931993 0.7778907 -0.24861538
H -2.566384 -0.08259846 0.59068775
H -1.4280736 -1.4098469 0.92125875
H 2.6753893 0.5697815 -0.1464388
H 1.4323324 1.655507 -0.6690044
H -1.1515749 0.19870035 1.6343061
