11

O 0.24703705 -1.2674651 1.2563331
C 1.399314 -0.7216426 -0.79145217
C 0.3052465 -0.63054466 0.23137227
C -0.86681205 0.2879862 -0.10562167
O -0.8046425 1.5009216 1.9630394
C -1.441931 1.17431 0.99862605
O -1.3664209 0.31670386 -1.2043353
H 0.9708915 -0.9274572 -1.7761271
H 1.9218014 0.24009548 -0.85536206
H 2.1016665 -1.5035876 -0.49603966
H -2.4661508 1.5306802 0.779567
