11

O 0.42046198 1.4097838 1.0087165
C 0.25334683 0.76952404 0.0019381334
C -0.11757937 -0.735162 0.019409195
C -0.6160405 -1.1452806 1.298698
O 0.8902605 0.78596354 -2.2988522
C 0.44121385 1.4044222 -1.373836
O -0.7678644 -1.2180307 -0.98331064
H 0.97140235 -1.1346773 0.20820096
H -0.9679748 -2.16957 1.3813397
H -0.7483438 -0.46058062 2.1322215
H 0.24111743 2.4936075 -1.3945253
