11

O 0.6695293 -1.1413728 0.47481316
C -0.627187 -1.2945602 0.2712718
N -1.3201575 -0.19393063 0.107320465
C 2.3288307 0.31287816 -0.659771
C 1.2657555 -0.05896283 -0.19681557
C -0.68590623 1.021569 0.2289342
H -1.2187836 1.8525639 -0.22241282
H 3.1332026 0.8548398 -1.1097074
H -1.0368074 -2.2895973 0.16418377
H -2.261254 -0.26445282 -0.26291865
H -0.24722238 1.2010258 1.205102
