11

O 0.9215095 0.35561198 1.0067842
C -0.6879904 -1.1253217 2.237471
N 0.11883032 0.70460796 -1.126673
C 0.42032287 1.2511277 0.061066482
C 0.04714952 -0.39503548 1.6292669
C -0.03564851 -0.5513173 -1.5029324
H -1.3471122 -1.7780697 2.76605
H 0.14181021 -1.3490628 -0.7975973
H -0.07448731 1.3997914 -1.8381246
H -0.39136046 -0.7383925 -2.5050485
H 0.88697636 2.2260609 0.069736294
