11

C -0.35338613 0.26227832 1.7782815
C 0.0225961 -0.031213779 0.3642552
C 1.1904597 -0.3914029 -0.2539694
C 0.69529116 -0.47789967 -1.5888647
N -0.6996675 -0.19350849 -1.7277002
O -1.0580434 0.12100299 -0.5117728
H -0.4418412 1.3412645 1.9466065
H 1.1545417 -0.93057954 -2.465669
H 0.43177763 -0.12855431 2.4275136
H -1.3109136 -0.20134331 2.0369427
H 0.3691855 0.6299562 -2.0056233
