11

C 1.0096983 -0.808254 -1.1427816
C 0.21688731 -0.16282873 -0.05972636
C -0.8850111 0.6330352 -0.050191473
C -1.0914267 0.88104916 1.3323445
N -0.19754055 0.28805807 2.0739856
O 0.6313284 -0.37352428 1.1995215
H 1.0084616 -1.8965914 -1.034313
H 0.58137137 -0.55462366 -2.1141028
H 2.049911 -0.46877855 -1.1211946
H -1.4603941 0.9886563 -0.8908821
H -1.863286 1.473802 1.8073404
