11

N -0.11321459 1.6857548 1.0320457
C -0.56592906 -0.19815326 -0.93922377
C -0.92182076 1.843695 -0.018237788
N 0.8349447 -1.6594131 0.022283558
C 0.27501562 -0.3092814 0.17055114
N -1.2002476 0.99041504 -1.0154954
N 0.540707 0.5242163 1.1361916
H 0.57272804 -2.312617 0.759613
H 0.15416114 -1.6816722 -0.9639941
H -1.4171779 2.8107476 -0.047168884
H 1.8408332 -1.6936915 -0.13656524
