11

N 0.99070036 -0.8482189 -1.5268382
C 0.24899848 -0.2207507 -0.5559433
C 0.58754396 -0.27669662 0.8133124
N -0.120423846 0.3808389 1.7033216
C -1.1525131 1.087469 1.2072369
N -1.5093491 1.1581835 -0.06433445
N -0.79839724 0.48431048 -0.9621914
H 1.5296457 -1.6563365 -1.2650702
H 0.54273844 -0.9025184 -2.428665
H 1.4350197 -0.8599426 1.1680326
H -1.7539632 1.653662 1.9111389
