11

N 0.07434243 -1.8799485 -0.09003865
C 0.14914826 -0.8584091 0.7466044
C 0.26642486 0.47040558 0.32464272
N -0.13573362 1.5603689 1.1034501
C -0.6213931 -1.4302216 -1.1679591
N 0.2751823 0.68582743 -1.1063907
N -0.35071835 -0.22990915 -1.7040653
H -1.2819929 -2.0894535 -1.7173008
H 1.3855183 0.037762705 0.60837364
H -0.15521593 1.333032 2.0892632
H 0.3944377 2.4005454 0.9134205
