11

N 1.41579163 1.27002744 0.44454696
C -0.24408720 -0.02421177 -0.25254994
C -0.20560779 -1.03039484 0.72694545
N 0.80279949 -0.74143882 1.60879458
C 1.52363762 0.35989941 1.41193049
N -1.32947075 -0.28935528 -1.25472260
N 0.45646917 1.05839733 -0.45819965
H -1.72321877 -1.17084055 -0.87719909
H -0.97202949 -0.43443079 -2.19964972
H 2.31802553 0.56021027 2.12872283
H -2.04230929 0.44213776 -1.27861946
