11

O -1.6170478 -0.031260215 -1.1399053
C -0.42838785 -0.78405786 1.0186163
C -0.5772331 -0.2013363 -0.34178042
O 0.9154102 -0.38549107 1.1044937
C 0.73466885 0.4043342 -0.3593404
N 1.3936574 1.3970872 -0.78017867
H 2.2908583 1.5150298 -0.33434328
H 0.8661528 -0.70615906 -0.92398304
H -0.596975 -1.8652186 1.1195973
H -1.8864129 0.9009638 -1.0803728
H -1.0946913 -0.24389152 1.7171967
