12

N -0.47681290 -0.22538167 1.30416800
C -1.30262863 -0.50661450 0.32474281
C 0.50747861 0.69053583 0.96529434
C 1.43550394 -0.33660582 -1.15302861
N 2.17515730 -1.11647437 -1.58203175
C 0.48196796 0.66038924 -0.55093640
N -0.91943989 0.25929955 -0.76970505
H -0.62253241 -0.55436012 2.24589328
H 0.68877235 1.62735215 -1.02366247
H 1.44633944 0.59978131 1.49805097
H -1.15629652 -0.09692149 -1.68669255
H -2.25750941 -1.00099977 0.42790747
