12

N -0.88149405 0.475347 0.25159892
C 0.06799583 -0.03766317 1.0899098
C -0.98651767 0.28451765 -1.070416
C 0.9971638 -0.8953654 -1.4180912
N 0.6798207 1.3580828 3.1715863
C 0.40431005 0.71849763 2.2392213
N 0.0033959674 -0.17364205 -1.8258052
H 0.22107066 -1.1045939 1.1158845
H 0.95838386 -1.5795039 -0.5791717
H 1.882718 -0.9398107 -2.0515258
H -1.4795418 1.203139 0.63416463
H -1.8673053 0.69099534 -1.5573558
