12

N -0.19031505 -1.5401804 0.26853362
C -0.81660813 1.1417114 0.6541087
N 1.8547618 -0.30927786 0.25112754
C 0.5218778 -0.31275636 0.4682541
C -1.012067 -1.0135801 -0.5819038
C -0.81488657 0.4358999 -0.6414304
N 0.015899114 0.5731711 1.4643399
H -1.7213831 -1.6098919 -1.1570355
H -1.4149731 2.0070708 0.94404393
H 2.320939 0.57742095 0.36445275
H 2.1977322 -0.9288267 -0.463208
H -0.9409768 0.9792392 -1.5712829
