12

N 0.10992412 -0.57462738 -1.10236853
C 0.46489471 0.77043932 -0.54643435
N 1.01391071 -1.28749813 1.14675247
C 0.26895654 -0.45011011 0.33334537
C -1.10807165 -0.54369569 -0.23617818
C -0.80708404 1.53471781 -0.51088839
N -1.78294487 0.72772803 -0.32832789
H 1.44385265 1.16146248 -0.80567105
H 1.90562560 -1.54729317 0.75136204
H 1.10522873 -0.93904976 2.09202610
H -1.69190765 -1.45865087 -0.17752148
H -0.92238458 2.60657732 -0.61609599
