12

N 0.61646616 -1.8877758 -0.23870349
C -1.1454228 0.058691688 -0.51358527
N -1.5710406 1.0896386 0.40099752
C 0.14084747 -0.5921671 -0.124723345
C -0.45436168 1.5362742 0.8373575
C 0.65893173 0.79897213 0.1890686
N 0.15086712 0.4155409 -1.1670738
H -1.8820884 -0.44999772 -1.1300323
H 1.4931704 -1.9547141 -0.7345779
H 1.7162668 1.0330768 0.26456022
H -0.36678272 2.329074 1.5701904
H 0.6431467 -2.3766131 0.64652175
