12

N 2.166943 0.39196905 -0.69733435
C 0.8857516 0.16615577 -0.28331012
N 0.70550114 -0.8402553 0.5844043
C -0.5391065 -1.0233539 1.0053221
C -1.6092339 -0.24097162 0.58670026
C -1.2949057 0.7650663 -0.32104856
N -0.0624556 0.98285747 -0.76863307
H 2.2903042 0.96422553 -1.5163797
H 2.835021 -0.34312525 -0.5255225
H -0.68994606 -1.8412534 1.7089657
H -2.6195526 -0.40398282 0.93978906
H -2.0683203 1.422668 -0.712953
