11

N 0.82007653 0.66744576 0.48645406
C -1.54595879 1.54704483 0.70170894
C -0.33911911 1.04790549 0.57732104
C 0.40966476 -1.20772988 -1.09286468
C 1.18349730 -0.69174017 0.10615516
O 0.28329258 -2.38016193 -1.33156865
H -2.02177093 2.03139000 -0.14408950
H -2.06709349 1.48259755 1.64968412
H -0.01174193 -0.42022404 -1.75282176
H 1.03984259 -1.37585122 0.94974957
H 2.24931054 -0.70067668 -0.14972820
