11

N 0.06537175 0.21700604 1.1416137
C 0.83244985 -0.90490645 0.61531353
C -1.8171587 1.4031415 -0.0697137
C 1.2881047 -0.7019486 -0.817829
C -0.83703077 0.75948817 0.5186179
O 1.5940351 -1.614437 -1.5398525
H 1.3446426 0.35749477 -1.1459686
H 0.24977177 -1.8303688 0.68090194
H -2.8393636 1.0622478 0.045526933
H 1.7247688 -1.0304027 1.2394382
H -1.6055915 2.2826853 -0.66804844
