12

O 0.2972945 1.824101 -1.4222682
C 0.36474594 1.553018 -0.052457813
C 0.12031403 -0.73738956 2.657507
N -0.6940379 -1.9352182 -0.4402209
N -0.29305562 -0.661546 -0.71376425
C 0.039717022 0.10985007 0.23391952
N 0.09562261 -0.31767014 1.5593015
H -0.33428264 2.1811008 0.51931787
H 1.3751522 1.7692686 0.31762996
H -0.52147335 -2.527692 -1.2391875
H -0.13010612 1.0677043 -1.841483
H -0.31989068 -2.3255267 0.42170572
