12

O 0.18281240 1.10413753 -2.04598027
C 0.72765418 1.19896282 -0.76201307
C 0.16100412 0.14155232 0.14967778
N -0.73140612 -0.64823317 -0.27896766
N -1.32209635 -1.52980250 0.57647035
C 0.98898721 0.00299491 2.57729657
N 0.63404502 0.09235757 1.45977264
H -0.57089334 0.50451475 -1.99186480
H 0.52987526 2.18214433 -0.31002413
H 1.81718125 1.07658738 -0.81305332
H -1.66481278 -2.32835154 0.06264526
H -0.75235078 -1.79686423 1.37604048
