12

O -0.4768587 2.3656986 -0.13088283
C -1.1594757 1.1888105 0.19709842
C -0.18157314 -2.3226864 -0.16346267
N 0.9993137 0.008550621 0.03193839
N 1.6266341 -1.1243485 0.082846336
C -0.29855084 -0.03316236 0.028837731
N -0.8421573 -1.2912799 -0.12752381
H -2.02721 1.1048753 -0.46304137
H 2.5926626 -1.0101321 -0.22089227
H 0.43274516 2.2654936 0.18089499
H -1.5369071 1.2069443 1.2333404
H 0.8713768 -2.3587637 -0.64915335
