11

N -1.7441554 0.45005274 -0.9573305
C 0.3577837 -0.7460397 -0.27235106
C 0.9470467 1.0808573 1.1789104
C -0.5688911 0.2089292 -0.29145315
C 1.4235101 -0.26082233 0.66688305
O -0.21422313 1.2726655 0.57236975
H 2.4090765 -0.11665942 0.20231003
H -2.1883976 -0.3674556 -1.3449624
H 1.6053079 -0.9089256 1.535782
H -2.3797932 1.0588704 -0.46083286
H 0.35273552 -1.6714728 -0.82932484
