11

N 0.56486416 -1.4111601 -1.3643538
C 0.17575432 -0.43840927 -0.45079353
C -1.0237882 0.103543155 -0.109110475
C -0.71364033 1.1302937 0.8555997
C 0.62528336 1.11971 1.0148265
O 1.1883708 0.15558793 0.21414934
H 1.4358572 -1.8590935 -1.1089294
H -0.15608534 -2.0973744 -1.5368766
H -1.9969227 -0.16997483 -0.48581347
H -1.4176221 1.7797406 1.3557601
H 1.3179284 1.6871372 1.6155413
