11

O 0.9403433 0.77076644 -1.0274403
C -1.2542928 0.32464615 0.1416905
O -2.0081966 1.2311971 0.29531872
C 0.23806201 0.10593736 -0.031141436
C -0.13905829 -1.369979 -0.19641703
C 1.6278108 1.3178859 0.08390439
O -1.524579 -1.0165179 0.072769485
H 1.0076374 2.190836 0.39771208
H -0.014441067 -1.7344657 -1.2170517
H 0.8859236 0.25252497 0.9347984
H 0.2407906 -2.0728314 0.54585695
