10

O -1.380234 -1.2699023 -0.36024302
C 1.2812353 0.997833 0.39894652
C 0.98800796 -0.19575107 -0.29306298
C -0.3461561 -0.25564823 0.003699388
N -0.8459535 0.70802766 0.7418425
N 0.20185229 1.5155896 1.0001013
H 1.6228979 -0.8571256 -0.8564355
H -2.1326683 -0.9412568 0.18645152
H 2.2377787 1.496039 0.4789179
H -1.6267605 -1.1978052 -1.3002177
