9

C 0.77604634 0.11951465 -1.6535182
C 0.15283625 0.025140222 -0.33333585
C -0.349098 -0.04246834 0.7602104
C -0.97352695 -0.15117887 2.0657327
O -0.65760815 0.5139189 3.025633
H 0.8147005 1.1613723 -1.9846367
H 0.2181375 -0.4586121 -2.3950818
H 1.8005229 -0.2636423 -1.6164955
H -1.7820103 -0.9040444 2.1314917
