11

N -0.6623428 -2.3492544 1.8714594
C 0.7216982 -0.6185621 0.4724626
C -0.30508977 2.0052168 -0.65826356
C -0.038075328 -1.5890846 1.2638931
C -0.17355774 0.15869841 -0.48642942
O 0.59778273 1.0758492 -1.2114698
H -0.83054763 0.8300413 0.20902355
H -1.1934243 1.9740357 -1.348327
H 1.2325147 0.08951581 1.1312963
H 1.483381 -1.140425 -0.11809034
H -0.8323393 -0.43603164 -1.1255547
