11

N -2.81180813 0.54757072 -1.29740326
C 2.05119156 -0.33871164 1.48464031
C 0.44763041 0.48853533 -0.12834793
C -0.60043856 -0.57287075 -0.44381054
C -1.84445439 0.04033900 -0.91890537
O 1.66709656 -0.18884644 0.25273543
H 0.68874624 1.08838195 -1.00859188
H 0.13145702 1.14053457 0.69577926
H -0.21256292 -1.25514128 -1.20778880
H -0.81303791 -1.16307467 0.45476690
H 1.29618027 0.21328332 2.11692566
