12

N 0.49196833 -2.5563376 -1.4494557
C 0.2070586 -1.7995774 -0.62231994
C 0.7001887 1.3181112 -0.021994619
C -1.2322357 0.19133821 -0.015440729
N 0.94967204 0.15243532 0.65326875
C -0.15808226 -0.79343474 0.42408442
N -0.51773214 1.360628 -0.48946205
H -1.3387713 1.6773466 0.16425416
H -2.0160608 -0.14136915 -0.6885048
H 1.8947035 -0.19343385 0.7469058
H 1.4123616 2.1338437 -0.04272567
H -0.39307028 -1.3495504 1.3413904
