12

N -0.07638874 2.47615360 1.52462166
C 0.29785643 1.67446375 0.78038617
C -1.02793429 -0.75229492 -0.65553269
C 0.76770868 0.59415593 -0.15702222
N -0.25706599 0.27896093 -1.16185892
C 0.91693451 -0.76365498 0.50220309
N -0.33380478 -1.33479865 0.29170073
H -1.90888250 -1.15761845 -1.13004608
H -0.73978356 1.04865371 -1.60462407
H 1.68490173 0.96041852 -0.63179434
H 1.29421344 -0.82474854 1.51654317
H -0.61775502 -2.19969095 0.72542362
