11

C 0.59631914 0.7348371 2.2439854
C 0.30603355 0.16531959 0.92808944
C 0.074808836 -0.31708428 -0.15063989
C -0.14518152 -0.9695941 -1.4412097
O 0.33013627 -2.051733 -1.7175943
N -0.9402751 -0.26346684 -2.2981565
H 0.46129894 -0.019891603 3.0235267
H -0.06254234 1.5778897 2.4635026
H 1.6316228 1.0838422 2.2853458
H -1.0406636 -0.62590885 -3.2342768
H -1.211557 0.68579024 -2.1025722
