11

C 0.28513749 -0.09118889 1.31577170
C -0.65608547 -0.23744412 0.22330220
C -0.09599831 -0.67776929 -1.01653102
C -0.80953853 -0.37775665 -2.11810483
O 0.56571416 -1.18028913 1.80369994
N 0.71454793 1.10938195 1.78795594
H 0.90052775 -1.11673447 -1.09549754
H 0.21338754 1.93797794 1.50443738
H 1.10684885 1.10090637 2.71883952
H -0.40323651 -0.47312851 -3.12106569
H -1.82130492 0.00604496 -2.00280704
