11

C 0.56567807 1.18207650 -1.28778274
N 1.74277159 0.73073595 -0.57382064
C -0.02248758 -0.53456492 -0.15837671
N 1.40446624 -0.27228495 0.08183225
C -0.79766023 -0.53367585 1.15526839
N -0.47203509 0.47980346 -1.08246979
H 0.63030671 2.05932463 -1.92221836
H -0.70865776 0.44298584 1.64057161
H -0.08792746 -1.51901423 -0.63834319
H -0.40094938 -1.30131467 1.82419061
H -1.85350506 -0.73407188 0.96114860
