11

C 0.9390463 1.0901653 -0.76729256
N 0.08832324 0.13834943 -0.08467947
C 0.3776937 -1.0700482 0.42582187
N -0.6992487 -1.6122162 0.9595991
C -1.6403602 -0.6622188 0.7355473
N -1.2164931 0.41505426 0.10672446
H 0.57420653 1.2431492 -1.7852821
H 0.9258821 2.0409896 -0.23016672
H 1.9577991 0.6978318 -0.79608786
H 1.3653668 -1.511349 0.39003432
H -2.6722157 -0.7697075 1.0457817
