11

C -1.2936803 0.9720623 -0.68651444
N 0.46918714 -0.18935892 -0.9955351
C -0.41139844 -0.802675 -0.1170395
N -1.5488452 -0.091434695 0.06903512
C 1.1466815 -0.23701943 0.7621494
N -0.10383921 0.98398536 -1.309029
H -0.34434116 -1.8619113 0.10948485
H -1.9954852 1.7913613 -0.8062639
H 1.8234793 -1.084202 0.71070474
H 0.60808915 -0.18416913 1.7089089
H 1.6501524 0.7033616 0.5540992
