11

N 0.9474141 1.1427057 1.1238317
C 0.1194099 0.32312495 0.3578938
C -1.2040038 0.12623586 0.31310013
O -1.5099702 -0.7298014 -0.73733044
C -0.34844884 -1.0902375 -1.3587533
O -0.2761076 -1.8043453 -2.3222394
N 0.66414994 -0.47010112 -0.65503645
H 1.6176342 0.62066656 1.6774957
H 0.4200328 1.759759 1.7254928
H -2.025638 0.5000915 0.90121484
H 1.5955279 -0.3780983 -1.0256698
