11

N -0.9242495 -0.37924376 -0.49162543
C 1.0439265 0.5129953 0.057493217
C -0.18092223 -0.22316816 -1.700066
O -0.5153087 -0.033316925 -2.8478389
C -0.18508416 0.07228735 0.53414005
O 1.1458887 0.32855052 -1.2273115
N -0.578428 -0.117121376 1.8483701
H -1.5813882 -0.08765297 1.962833
H 1.9242722 0.8376662 0.60201985
H -0.10553706 0.47270727 2.5183346
H -0.04316953 -1.3837036 -1.2563488
