11

N 1.13009920 -0.12079226 -0.04947861
C 1.29220591 -0.83661992 -1.23913722
C 0.00007081 0.24895139 0.40484156
O -1.40820343 -0.67575866 -1.28149939
C -1.32799164 -0.04745114 -0.25721443
O 1.59235260 -2.00178052 -1.28363106
N -0.08684246 1.02783254 1.52040978
H -2.22681094 0.36617480 0.24501322
H 0.76583679 1.17504575 2.03884906
H -0.94873354 1.06057301 2.03986599
H 1.21801710 -0.19617504 -2.13801931
