9

O 2.5051348 -0.30717036 -0.046245184
C 1.429137 0.2191185 -0.13137044
C 0.2095461 -0.23434106 0.66330945
C -1.0258449 -0.09422952 -0.10782575
C -2.0127814 0.038921665 -0.7791332
H 1.2558169 1.0968977 -0.78648514
H 0.1612115 0.3946971 1.5617797
H 0.37242633 -1.2644197 0.9967945
H -2.8946462 0.15052566 -1.3708241
