9

O 0.20080027 -1.8507367 0.42098466
C -0.41431993 0.58266294 -0.6551238
C 0.9614546 0.55288047 -0.5517597
C -1.4442087 0.16002928 -0.06824503
C 0.05393248 -0.67799383 0.63190114
H 1.5236089 -0.10662658 -1.2069046
H -2.5050924 0.02451077 0.011534371
H 1.4783303 1.4160486 -0.14021942
H 0.14549458 -0.10077517 1.5578324
