9

O 0.45568087 -0.93810832 -1.96915779
C -0.56131695 0.52569537 -0.37420964
C 0.67641943 -0.34204509 1.75931939
C 0.06639056 0.08272525 0.69266235
C -0.31619945 -0.04015336 -1.72006752
H -1.28685556 1.33221122 -0.29214590
H 1.62017121 0.09449545 2.07398871
H 0.26198612 -1.15215774 2.35289842
H -0.91627610 0.43733721 -2.52328818
