9

O -0.22225277 -2.2085454 -0.1954621
C 0.019340098 0.605983 0.3513444
C -0.008585868 -1.3906556 -1.0612398
C 0.1237559 0.067664064 -0.84354687
C -0.08131579 1.1570243 1.5246066
H -1.043552 1.4910432 1.9026362
H 0.31382892 0.69107664 -1.7146597
H 0.10700428 -1.6979231 -2.1221254
H 0.7917773 1.2843331 2.1584463
