11

O 1.684424 0.6638068 -0.5129377
C 0.76049733 -0.04715358 0.2511443
C -0.33826324 0.690117 1.0424443
O -1.3517702 -0.14793663 0.4148454
C -0.42344755 -0.6880477 -0.4408496
N -0.55846786 -1.37376 -1.480816
H 1.2641432 0.9064443 -1.3483313
H 1.3150342 -0.7554776 0.87251073
H -0.34877563 0.5738804 2.1285927
H -0.4618874 1.7369008 0.74971735
H -1.5414869 -1.5587735 -1.6763201
