11

O -0.5568563 -1.1247815 1.477809
C 1.0314317 -0.7713022 -0.49544048
C -0.32652476 -0.60874456 0.21118622
O 1.0299324 0.69247556 -0.81640345
C -0.13255355 0.7674307 -0.14504325
N -1.2006571 1.4987195 -0.1981567
H 1.8914531 -0.99668926 0.1458006
H 1.0777022 -1.3211839 -1.4391606
H -1.613629 0.2573738 -0.19436982
H 0.06511136 -0.78321797 2.1210039
H -1.2654102 2.3899198 -0.6672252
