11

O 0.7630579 -0.56571823 -0.31129533
C -0.99485123 1.1722019 0.09559173
C 0.23534721 0.63152933 -0.5931119
O -1.6166546 0.626341 0.9684452
C 0.23770396 -1.4366972 0.69922495
N 0.7197966 1.4139904 -1.4711713
H 0.8931252 -2.308427 0.67269933
H -1.2654464 2.164051 -0.31021008
H -0.7911704 -1.7306329 0.47928366
H 1.5399897 1.0020578 -1.914834
H 0.27910244 -0.968696 1.685378
