11

C -1.28705669 -1.14342606 -0.91921413
C -0.42519907 -0.35764861 -0.28069335
C 0.53187769 0.99769220 1.23141336
N 1.50493616 0.78533868 0.18032919
C 0.94991205 0.01617884 -0.66796556
O -0.65780585 0.27280367 0.90167483
H -1.00216511 -1.60056154 -1.85995284
H -2.27598776 -1.34443261 -0.52241207
H 1.44738741 -0.32218027 -1.57253472
H 0.29512684 2.06248324 1.31996920
H 0.91897435 0.63375239 2.18938620
