11

C -0.88121295 -0.79840547 -1.1904194
C -0.12564337 -0.062188365 -0.14194456
C -0.26098126 1.1323498 0.46991315
N 0.7610738 1.301138 1.3977121
C 1.4474771 0.21883708 1.2986465
O 0.98348844 -0.6635602 0.3903526
H -1.2624891 -1.750533 -0.8091656
H -1.7298235 -0.19366026 -1.5189981
H -0.25080934 -1.0092603 -2.0598192
H -1.017317 1.8905144 0.31814042
H 2.3362372 -0.06523174 1.8455822
