11

C 0.62793726 -0.121735536 -0.63876235
C -0.36008167 -1.112065 -0.8175548
C -0.48748472 1.2287627 0.45497924
N 0.48302272 0.8194199 1.3527985
C 1.2076519 -0.033516936 0.6736623
O -0.016424906 1.0877252 -0.8338965
H 1.9739531 -0.6595736 1.1149963
H -1.0437722 -1.0042061 -1.6570333
H -0.17488877 -2.132056 -0.49103048
H -1.081584 2.116776 0.6523175
H -1.1283284 -0.18953072 0.18952368
