12

C 0.99033956 0.09015947 0.86876222
C -0.03850997 0.01932746 -0.24004955
C -1.19971543 0.90930146 -0.24703427
O -0.07542883 1.15688614 -1.07911043
N -0.17862477 -1.22135427 -0.94747124
H 1.99026017 -0.10993964 0.46601028
H 1.00289889 1.08245585 1.32829895
H 0.77845444 -0.65382293 1.64386842
H -0.55743144 -1.93177509 -0.32792208
H 0.72828735 -1.55125554 -1.26162160
H -2.09716233 0.59391610 -0.77526302
H -1.34336831 1.61610085 0.57153246
