11

C -2.05275240 1.65702393 -0.82081572
C 0.29895184 0.24030861 1.27594208
C -0.03051586 0.17201266 -0.19310707
O 1.04892510 0.20833143 -1.09042873
C 0.27848677 -0.98929924 -1.03107368
N -1.13172875 0.97058940 -0.57099991
H -0.56355063 -0.07211451 1.87168945
H 0.56284004 1.26338274 1.55383867
H -0.33742261 -1.18740451 -1.90480999
H 0.78135174 -1.84646780 -0.58370401
H 1.14541481 -0.41636288 1.49346903
