11

C -0.52108973 1.1361631 0.47879782
C -0.12721303 -0.23170558 -0.03023875
C 1.2608832 -0.71369195 0.030129531
O 0.2791395 -1.1798064 0.9413152
C -0.98814356 -0.77317464 -1.0806875
N -1.6763033 -1.1656051 -1.9214271
H -1.527904 1.1091683 0.9053307
H 0.18110979 1.4518948 1.2542686
H -0.5082274 1.8663232 -0.33561224
H 1.612173 -1.4467634 -0.6932038
H 2.0155756 -0.052802496 0.45132765
