9

O -1.3764517 -0.3671627 0.8356957
C -0.3509879 -0.43988124 0.19245207
C 0.045393817 1.8932852 -0.2657106
N -1.1667784 1.8409213 0.0029696662
C 0.4439178 -1.7409343 0.0918813
N 0.18968554 0.552598 -0.56961685
O 0.78938985 -2.3301117 1.0800941
H 0.7770756 2.6770947 -0.42927942
H 0.6487553 -2.0858092 -0.93848604
