11

N 1.6735855 0.53948647 -0.3586657
C -0.521973 0.34461156 -0.23327093
C -0.114897855 -0.77667284 0.3789016
N 0.6129496 1.1192335 -0.659856
C 1.3731902 -0.72572565 0.32750183
N -1.7519159 0.8629937 -0.5631678
H 1.8673359 -0.70045215 1.3058728
H -1.7405182 1.850176 -0.76976436
H -2.5286942 0.57794493 0.010877388
H 1.844488 -1.5279754 -0.25366136
H -0.71355003 -1.5636201 0.8152326
