10

O -0.013256995 -1.3731503 -0.9602089
C -0.40375564 -0.38800472 -0.051887333
C 0.6835061 0.0074379835 0.94424385
O 0.62911177 1.3853548 0.47385713
C -0.26096562 1.0725583 -0.5029183
O -0.69269395 1.7733645 -1.3615617
H -0.6535102 -1.3950123 -1.682362
H -1.3806658 -0.58656305 0.41027546
H 1.6542716 -0.4422551 0.7265015
H 0.43795866 -0.053730305 2.0040603
