10

O -0.1497931 0.88245076 -2.0074522
C -0.038177177 -0.3118725 1.4254115
O 1.3410691 0.26434034 -0.40609655
C -0.72973746 -0.24461623 0.079442844
C 0.66520447 -1.0948944 0.3910834
C 0.14566423 0.41728744 -0.8059747
H -0.5759596 -0.94185215 2.130451
H -1.7000859 -0.6478251 -0.17179097
H 0.6736422 1.071606 -2.4784017
H 0.3681735 0.60537595 1.8433275
