10

O 0.95729876 2.089543 -1.1646733
C 0.67339236 1.1134579 -0.5487936
O 1.1289126 0.75605875 0.7075281
C 0.4996892 -0.5369575 0.567767
C -0.9667185 -0.36755636 0.506451
C -0.12140728 -0.14952773 -0.74277854
H 1.0777065 -1.4053541 0.85036266
H -1.5568954 -1.2794818 0.47909173
H -1.431273 0.4738489 1.0125602
H -0.2607052 -0.6940309 -1.6675152
