11

N -0.15775674 -1.61984048 2.47843753
C 0.01214140 -0.99746259 1.42470364
C 0.04599588 -0.38006043 0.27282578
C -0.46171015 0.91572459 -0.30296576
C 0.22614185 0.38987511 -1.57839495
O 0.69237413 -0.79914053 -0.88504435
H 0.57484574 -1.44861956 3.16517773
H -1.54806242 1.01299125 -0.35459246
H -0.01834848 1.81988306 0.12523030
H -0.43787411 0.12686484 -2.40536889
H 1.07225290 0.97978517 -1.94000854
