11

C -1.2146515 -0.72131604 -1.5806462
C -0.849899 0.20435548 -0.4331909
C 0.5354626 -0.123343326 -0.10705344
O -1.7089322 0.36736357 0.49880046
C 1.0122347 0.24873924 1.2124008
N -1.5565053 -1.4076797 -2.4430132
H 0.56498784 1.2030979 1.516903
H 2.0927448 0.21119027 1.3306578
H 0.5478546 -0.48117763 1.8983002
H 1.1663347 -0.6496439 -0.82968533
H -0.5896316 1.1484141 -1.0634727
