11

C -0.4363142 -1.3817818 -0.5684077
C -0.51362926 0.01390878 0.036739323
C 0.8398289 0.6460419 0.22457099
O 1.8966901 0.14633355 -0.05599273
C 0.80910367 2.0130596 0.817278
N 0.77922773 3.0685704 1.2790104
H 0.05054275 -1.3600028 -1.5467637
H -1.4436985 -1.7889345 -0.69004655
H 0.13577385 -2.0572174 0.073478825
H -1.0098107 0.0054648686 1.0170002
H -1.1077145 0.69455737 -0.5868673
