11

C 1.5123086 -0.34561256 0.13641976
C -2.2169335 0.58129257 -0.35144788
C -0.76182747 0.42903736 -0.6404194
O -0.32533407 0.8096745 -1.69396
C 0.031396035 -0.21528298 0.4643662
N -3.3413885 0.6929709 -0.12186263
H 1.9622715 0.6328914 -0.04983815
H -0.13402648 0.3797994 1.3733739
H 1.6647532 -0.95743835 -0.7565473
H 2.037267 -0.8154715 0.9733547
H -0.4284859 -1.191861 0.6665609
