11

C 0.13963386 2.25859333 0.50543994
C 0.56803359 0.92299926 -0.00119789
C 0.01174826 -1.51125603 -0.37563650
O 1.66394992 0.79558132 -0.47878660
C -0.46465949 -0.16203363 0.14423969
N -0.19986533 3.28875635 0.89670064
H 0.26153830 -1.45699971 -1.43847304
H -1.36896122 0.17916055 -0.37720410
H -0.77538003 -2.25906602 -0.24140493
H -0.73994411 -0.20880073 1.20716672
H 0.90390610 -1.84693472 0.15915582
