10

O 0.40019698 1.68911009 -1.32568085
C -0.27827950 -1.35636321 0.04396531
N 0.16678083 0.68251961 0.71835270
C 0.18555746 0.56481022 -0.64325508
C -0.03864495 -0.71575547 -1.15250061
N -0.30084562 -0.53972352 1.17931863
H 0.14747495 -0.84497878 2.03439521
H -0.18740661 1.51420119 1.17283754
H 0.37177758 1.41676004 -2.25646784
H -0.46661111 -2.41058013 0.22903477
