12

N 0.35358137 -0.1657123 0.58407295
C -0.7778585 -0.98453355 0.15874046
O -1.3214328 -1.7143143 0.94727325
N -1.0237483 -0.7781496 -1.1447363
C 1.2274325 0.5348915 -0.5014716
C 0.3754314 1.3083621 0.42387685
H -0.25695828 -0.28834802 -1.6273828
H 2.2509065 0.46334764 -0.11184169
H -1.7033272 -1.3682411 -1.5981797
H 0.7152058 -0.5148181 1.4658303
H 0.73669434 1.799772 1.3317585
H -0.57592696 1.7077436 0.0720601
