12

N 0.22253513 -0.21510017 0.63073886
C 0.12875541 1.26477610 0.64513193
O -1.32172704 -1.91728718 0.39928947
N -0.64196125 -0.69297928 -1.43932767
C 1.24858348 0.68552581 -0.12355955
C -0.68739636 -1.05147804 -0.14645410
H 0.40225822 -0.65030372 1.52987210
H 0.21516961 1.65689689 1.66249006
H -0.75012802 1.63606316 0.11780549
H 2.15447903 0.63859519 0.49416190
H -1.13209162 -1.26626481 -2.10773047
H 0.16152324 -0.08844363 -1.66241844
