11

O -1.4771581 1.6290355 1.2657393
C -0.75357443 0.84165615 0.69221634
N -0.75870484 0.55993533 -0.65281194
C 0.2242222 -0.42654255 -1.0338874
C 0.87456006 -0.74437374 0.2891699
C 0.3237009 -0.026153995 1.264711
H -1.3994209 1.0084445 -1.2854025
H 0.9524137 -0.031192442 -1.7539575
H -0.23319544 -1.3190113 -1.4800817
H 1.6776955 -1.4666772 0.3759366
H 0.56946117 -0.025120012 2.318368
