12

C 1.06316844 -1.37329410 -0.29319096
C 0.33842557 1.12739961 0.70855683
C -0.52147150 0.32949573 0.06059988
O -0.25639529 -0.89422307 -0.45342410
N -1.87217486 0.61231362 -0.15203008
H 1.31763925 -1.48349811 0.76778630
H 1.34999729 0.81964790 0.93992701
H 0.01348775 2.10326991 1.04291018
H 1.08977131 -2.35055966 -0.77675667
H 1.78752120 -0.70401099 -0.77236385
H -2.21840397 0.22196280 -1.01819104
H -2.09156600 1.59149633 -0.05382328
