12

C 1.400856 -0.29224473 0.88185954
C 0.33519784 -0.50625783 -0.18624045
C -0.5903194 0.6946241 -0.31819442
O -0.21659368 1.8336251 -0.111030936
N -1.8692397 0.39845905 -0.69595486
H 2.1127052 -1.12265 0.88938767
H 1.9434026 0.63825244 0.69439274
H 0.950666 -0.21996516 1.8769743
H -0.24963817 -1.4131775 0.016041188
H 0.8089841 -0.6484789 -1.1664174
H -2.140279 -0.5304875 -0.968559
H -2.4857426 1.1683009 -0.91225815
