12

C 0.9075153 -1.4589152 0.38756585
C -0.47505772 0.39602053 -0.040745016
C 0.55024326 1.2365862 -0.23601156
O -0.3928294 -0.91959053 0.26646793
N -1.823678 0.7562325 -0.073420584
H -2.4165823 0.009049836 -0.40907773
H 1.580102 0.9335222 -0.097939834
H 1.4680134 -1.3531806 -0.54886115
H -1.9890323 1.6270511 -0.55395025
H 0.77478945 -2.5164294 0.6191669
H 1.4626498 -0.97387785 1.1994387
H 0.35386628 2.2635312 -0.5126334
