12

C -0.68502561 1.07335118 1.41417321
N -0.64758207 -1.95771842 -2.01964413
C 0.21203715 0.39721380 0.41369768
N 1.45323274 0.53206848 0.22979933
C 0.06576062 -1.15924004 -1.35388069
O -0.53316993 -0.45885708 -0.34521492
H -1.47235565 1.62422730 0.89191546
H 1.12748670 -0.93333834 -1.46679828
H -0.11448325 1.76151529 2.03942640
H -1.16875343 0.32268733 2.04534708
H 1.84226530 1.20916812 0.88221739
H -0.07941272 -2.41107777 -2.73103886
