12

C 0.49612868 -0.73040736 1.2761815
N -0.53101593 0.08351895 1.2268797
C -0.6411778 -0.20538741 -0.4975411
N 0.75510067 -1.1078099 0.047202576
C -0.0976468 1.0429713 -1.1577995
O -1.5818827 -0.84598494 -0.8763772
H 1.4785166 -1.7616166 -0.21945782
H -0.9661105 0.519916 2.0267313
H 0.162193 0.80609024 -2.194926
H 0.7771122 1.4365705 -0.63795215
H 1.0448731 -1.0294539 2.1699126
H -0.8960907 1.7915926 -1.1628537
