12

C 0.16358367 0.16132306 0.56665653
N -0.4223834 -0.69270736 -2.7699702
C 0.15846244 -0.19996649 -1.7652359
N 1.2947333 0.7176033 0.5064595
C -0.72265834 -0.075972244 1.7587558
O -0.44671547 -0.33769655 -0.54808724
H -1.6867704 0.41750294 1.6068465
H -0.91286796 -1.1468755 1.8721392
H 1.1050532 0.3412424 -1.7193763
H -0.2572584 0.30911794 2.6671271
H 0.13419971 -0.52171785 -3.6038835
H 1.5926216 1.0281463 1.4285686
