10

O -0.7643814 0.4590277 -0.7906564
C -0.34818253 0.5925137 0.56988573
C 0.2048069 0.049259957 -1.625669
O 1.3224646 -0.23525818 -1.292037
C 0.09099342 -0.73195547 1.173722
O 0.7323355 -0.7773904 2.1912487
H -0.274572 -1.639907 0.6517303
H 0.45980886 1.3222985 0.6683376
H -1.2348399 0.9504806 1.1019336
H -0.18843322 0.010930815 -2.6484954
