10

O 1.78302115 -0.44834121 -0.30568653
C -0.60194057 -0.45640457 1.16233578
C 1.03797447 -0.29360745 -1.23433207
O -0.19097908 0.24232154 -1.15105610
C -0.54977806 0.68513435 0.15939994
O -0.60282663 -0.25193257 2.34847869
H -0.70493293 -1.47127496 0.72653758
H 0.13735478 1.45488188 0.52060058
H 1.24468250 -0.56965839 -2.27517232
H -1.55257592 1.10888142 0.04889477
