11

N -0.28344262 1.09887633 -2.18206380
C -0.13192993 0.52388171 -1.07211048
O 0.54062592 -0.64326639 -0.94545015
C -0.01897754 0.12287380 1.15080043
C 0.34964809 -1.13672754 0.37681948
O -0.59731153 0.94281966 0.13702345
H 1.27532260 -1.60480334 0.71337006
H 0.86086363 0.62524550 1.56721267
H -0.77210115 1.98189651 -2.05641627
H -0.76076114 -0.03875359 1.93337134
H -0.46193644 -1.87204279 0.37744280
