11

N -0.89292204 0.38487583 -0.450627
C 0.40389088 0.22233368 -0.019066831
C 0.38386863 -0.9205159 0.7369286
N 1.3780451 1.1769438 -0.36341086
C -1.6204338 -0.6487624 0.055389397
N -0.885201 -1.448404 0.78097194
H 2.0758207 1.2652305 0.3633322
H -1.2253653 1.1761596 -0.97726446
H 1.2097948 -1.3928255 1.2507533
H 1.8495703 0.95101434 -1.2327255
H -2.677068 -0.76605004 -0.1442807
