11

N 1.066076 0.3125294 -0.12441547
C -1.0906421 -0.05236859 -0.36385703
C 0.07695567 -0.57323533 0.26503912
N -0.78541595 1.0967425 -1.073478
C 0.49273038 1.282215 -0.907807
N 0.3059454 -1.5168449 1.2405791
H -2.0839043 -0.48092222 -0.33912182
H 2.009354 0.25925553 0.22361816
H -0.6177047 -0.21417429 1.2076589
H -0.43931141 -2.212535 1.1979741
H 1.0659168 2.0993378 -1.3261902
