17

C 0.66687953 -0.13155492 0.08588969
N -0.16779013 0.60778946 -0.7202574
C 0.3865719 1.7243344 -1.4554876
O 1.8860878 -0.015853656 0.0636402
N 0.037376143 -1.059223 0.90019155
C 0.8387838 -1.7664886 1.8830065
C -1.5951858 0.375871 -0.8192351
H -0.8937665 -0.81991166 1.2083344
H -1.9364295 0.696667 -1.8086975
H 0.24044648 -2.571111 2.3175433
H 1.2084177 -1.1127452 2.6841066
H 1.7059616 -2.2029283 1.3827716
H -1.8135141 -0.6927001 -0.7230682
H 1.4652323 1.7291466 -1.3016669
H -2.1704686 0.9323182 -0.06485128
H 0.17295587 1.6288708 -2.527474
H -0.031558074 2.6775186 -1.1047459
