12

O -1.3774345 -1.0190322 0.79109883
C 1.4945382 -0.6288162 -0.85497314
C -1.2457337 0.24805112 0.20871079
O 1.0688804 0.61436015 -0.6779902
C 0.12746838 0.88839036 0.39002043
O 1.1026648 -1.6199389 -0.28630248
H 0.056068037 1.97783 0.35830995
H 0.56177187 0.5694481 1.3421413
H -0.6136802 -1.5455581 0.49996212
H 2.2890706 -0.6317562 -1.6112745
H -1.9747622 0.8953416 0.70730835
H -1.4888524 0.25168023 -0.86701137
