10

N -0.68491297 -0.75835340 -0.72671839
C -0.80525091 0.00867748 0.41113686
O 1.26896024 0.10928828 -0.45296589
C 0.53550232 -0.67907043 -1.20175910
C 0.46022976 0.61103549 0.63036200
N 1.04827013 1.40253394 1.44245973
H -1.41967754 -1.31246617 -1.14223244
H -1.73455724 0.10277057 0.94590157
H 0.39728317 1.68861367 2.16576635
H 0.93415337 -1.17302925 -2.07195049
