9

C 0.6538869 0.044798728 -0.85766906
C -0.62200755 -0.38622305 1.1002442
C -0.18292475 0.9083123 0.9683857
C -0.1053595 -0.95068985 -0.22135414
O 0.597124 1.1493897 -0.15409233
H -0.0924472 -2.0024831 -0.48764616
H 1.2472771 0.07043121 -1.7629914
H -1.2328821 -0.60727924 -0.19757922
H -0.26266703 1.7737432 1.6127026
