11

N 1.6188569 -0.066631466 -0.29531863
C 0.47757688 0.17805246 -0.99001515
O 0.36818153 0.1465332 -2.199767
C -0.7156212 0.46627036 -0.11350077
C -1.1583817 -0.5206452 0.8741169
O -0.46936724 0.656203 1.2766244
H 1.6575893 0.18863496 0.6783254
H 2.4741304 -0.18228929 -0.81580174
H -1.4461025 1.1378508 -0.55903167
H -2.2106252 -0.55912256 1.1564616
H -0.59623694 -1.4448562 0.98790634
