11

O -1.0832357 -1.4263023 -0.20154534
C 1.2621124 -1.1906 0.3114142
O -1.4599866 1.1191643 -1.8248838
C -0.1435511 -0.7199817 0.077623166
C -0.41766164 0.7650815 0.30193466
C -1.300674 1.5097852 -0.7010901
O 0.023170656 1.3619031 1.2555937
H 1.9262408 -0.7590758 -0.44666505
H 1.2913847 -2.2793636 0.25036374
H -1.7059745 2.4641213 -0.31265217
H 1.6081749 -0.844732 1.2899069
