11

O -1.799794 0.65187246 -1.6481107
C -1.15865 0.026561037 -0.86715084
O -1.2135193 -1.318144 -0.6068784
C -0.2189105 -1.239174 0.45657548
C -0.04402814 0.23644635 0.1378241
C 1.1259457 1.1017252 0.0675568
O 0.086526215 1.3010452 1.0281436
H 0.62861913 -1.8955817 0.25005317
H -0.66615975 -1.4599704 1.4269136
H 1.1902349 1.8574337 -0.7148682
H 2.0697353 0.7377858 0.46994132
