11

O -0.69216856 0.99501681 -2.29022590
C -0.89114351 1.48325159 -1.21184135
O -1.04503213 -1.39901152 -0.44613131
C -0.20796614 -0.70390522 0.07920549
C -0.44340951 0.80454042 0.08401301
C 1.00555741 -1.20081082 0.80891442
O -0.30742299 1.47186078 1.08210413
H 0.98223142 -2.29084923 0.84444431
H 1.02771901 -0.77743926 1.81742683
H -1.33936691 2.48375274 -1.05691187
H 1.91100145 -0.86640665 0.28900216
