10

O 1.87480971 0.64448340 0.23348568
C -1.46620306 -0.72932398 0.55729143
N -0.07052983 0.25858975 -0.98953723
C -1.34906286 -0.30529822 -0.74154926
C 0.61910206 0.19298534 0.13808166
N -0.16138729 -0.37546117 1.05301850
H -2.05802889 -0.34345618 -1.55411907
H 0.29925471 0.65055832 -1.84181329
H 2.18919987 0.56013428 1.14170168
H 0.12284559 -0.55321129 2.00343993
