10

O -1.766555 -1.1089569 1.2118415
C -0.8777696 -0.55014163 0.60222524
N -0.86647373 -0.13990264 -0.72273594
C 0.34498972 0.4655905 -1.0521308
C 1.1126504 0.44869885 0.05235198
N 0.37521183 -0.16585518 1.0592844
H -1.6514957 -0.28749195 -1.3338826
H 0.54578346 0.8523989 -2.0382075
H 2.1135552 0.8175843 0.21589124
H 0.67010325 -0.33192405 2.0053627
