10

N -0.23018207 -0.20755717 -1.6715101
C -0.10312683 0.04940626 -0.34856194
O 1.4638277 -1.0540276 2.472061
N 0.63428277 -0.7104874 0.38129038
C 0.7837487 -0.39581466 1.725483
O -0.75756633 1.1288747 0.12760118
H 0.23685202 0.5017497 2.0877855
H -1.1863272 1.6110122 -0.5883911
H -1.0148867 0.15080851 -2.1979194
H 0.17337787 -1.0739645 -1.9878383
