10

N 1.4826524 0.49924228 0.918205
C 0.22654189 0.6208354 0.37589788
O -0.44324884 1.6285276 0.44353026
N -0.23071676 -0.5482623 -0.23585407
C -1.4620416 -0.6392623 -0.8676865
O -1.8637401 -1.6682603 -1.3539437
H 1.8789328 1.3760177 1.2221129
H 2.1313796 -0.16912197 0.53297955
H 0.28881183 -1.4128053 -0.16272336
H -2.0085711 0.3130889 -0.8725179
