12

O 1.042728 1.105679 -1.0099393
C 0.6000541 1.0157284 0.32048973
C -0.44698688 -0.0897099 0.4484392
O -1.4908098 0.18759976 -0.44925633
C 0.15821284 -1.4371631 0.113029815
O -0.32804102 -2.1406255 -0.7396857
H 0.23558562 1.1285832 -1.5461948
H 0.15802813 1.958482 0.67202765
H 1.4739814 0.79370993 0.9432193
H -0.8096298 -0.13516255 1.4893808
H -1.6361161 -0.637206 -0.9424125
H 1.0429934 -1.7499156 0.70090216
