12

C 1.6946915 -1.1767477 -0.06868279
N -0.18205866 0.33851767 0.06685998
C 0.21557082 -0.94438076 -0.2699052
N -1.3642439 2.0195458 0.3806561
C -1.4367352 0.7795527 0.010281968
O -0.5629398 -1.7884136 -0.671967
H -2.1608245 2.6374507 0.4302784
H -0.0840524 1.6452324 0.44521713
H 2.2809732 -0.38309258 -0.5401679
H -2.2914135 0.18409675 -0.2935248
H 1.928727 -1.1656467 1.0021785
H 1.9623059 -2.1461148 -0.49122432
