10

C 1.27323936 -0.36496682 1.24076889
C -0.12731355 1.00958444 -0.25699896
N 0.84110515 0.82114775 0.67665317
C -0.77950019 -0.09367934 -0.71728001
N 0.58210831 -1.45790101 0.74068711
C -0.36637047 -1.31786864 -0.16281029
H -0.32937908 2.02583919 -0.58224057
H 1.32785299 1.64161015 1.01742488
H -1.56422797 -0.02855945 -1.46172842
H -0.85751444 -2.23520636 -0.49447547
