10

C 0.30095705 0.2706798 1.7691817
C -0.3285004 -0.40476075 -0.9268998
N 0.68253934 0.97888887 0.6446066
C 0.41392067 0.70479 -0.65837586
N -0.45014852 -0.84886456 1.4455926
C -0.7357778 -1.148121 0.19483678
H 1.236738 1.8030261 0.84427893
H 0.80225116 1.3840226 -1.4115218
H -0.58619255 -0.6926522 -1.9393004
H -1.3357869 -2.0470085 0.03760126
