10

C 0.8203178 -0.095072515 0.78535426
C 0.4456322 1.1363987 0.26083565
N -0.511857 1.2603002 -0.6570434
C -1.0935266 0.12690318 -1.0464259
N -0.82184947 -1.1058028 -0.6199832
C 0.13977084 -1.2044697 0.29845545
H 1.599844 -0.1850867 1.532366
H 0.9279908 2.056418 0.5874845
H -1.8767253 0.21783555 -1.7959657
H 0.37040284 -2.207424 0.65492266
