13

C 0.584226 -1.5820965 -1.1663585
N 0.22839405 -0.6420838 -0.12560377
C -0.05267618 0.6600801 -0.37794155
O -0.07527403 1.1674755 -1.4834754
C -0.33549 1.4775852 0.87916815
O -0.5638275 0.6917782 2.035307
H -0.11378363 -2.4254208 -1.1839147
H 0.5334146 -1.0543072 -2.1196702
H 1.6003703 -1.9621714 -1.0224843
H 0.27260995 -0.9149129 0.8450181
H -1.1679583 2.1556249 0.65587515
H 0.54854894 2.092193 1.0815074
H -1.4585543 0.33625582 1.982572
