13

C 0.7302284 0.06244448 -2.2282305
N -0.821762 -0.45293322 0.9312834
C -0.3878696 0.027464358 2.6070333
O 0.15586597 -0.5800264 -1.0851517
C -0.23351598 0.26244956 -0.122150004
O -0.10942043 1.4593809 -0.12705243
H 0.0054469313 0.7370158 -2.6887612
H 0.24054106 -0.8388729 2.8644845
H -0.92611325 -1.4510216 0.7835395
H -1.5276926 0.013339273 1.5582634
H 0.9974739 -0.7428795 -2.9092877
H 0.2607197 0.8730024 2.3514671
H 1.616098 0.6306368 -1.9354372
