10

N 0.9047731 1.926022 -1.8464284
C 0.35312715 1.0789762 -1.2849777
C -0.32692277 0.022173217 -0.5724093
C -0.48251772 0.12046072 0.9282896
C 0.46505827 -0.87752867 0.349563
H -1.1440166 -0.43006557 -1.1271437
H -1.4216601 -0.227798 1.3442277
H -0.06791735 0.99866 1.4134074
H 0.19077072 -1.9269176 0.3593636
H 1.5293055 -0.6839825 0.43610796
