10

N 0.9034991 1.9262774 -1.8482872
C 0.35236424 1.0795257 -1.2850786
C -0.32762 0.021985443 -0.57311743
C -0.48235282 0.1205048 0.9278771
C 0.4652618 -0.8778775 0.34988105
H -1.1437687 -0.43111324 -1.1282028
H -1.4210734 -0.22823967 1.3461498
H -0.06773559 0.99838006 1.4112781
H 0.19259365 -1.9274931 0.36127424
H 1.5288316 -0.68194973 0.43822607
