10

N -0.09041714 0.73665570 -1.49741479
C 0.27751739 1.35693961 -2.42188388
C -0.52774108 -0.00267293 -0.38559940
C -0.02962777 0.37477907 0.98031949
C 0.45123053 -0.89006195 0.32943979
H 0.66429819 1.20762889 1.03600187
H -1.55549149 -0.34218056 -0.48317631
H -0.73670203 0.31002277 1.80194590
H 0.08061258 -1.84412337 0.69384026
H 1.46632070 -0.90698707 -0.05347261
