10

N -0.56415534 -0.53374034 -1.4798439
C -0.5210725 -0.38567072 -0.08334407
C -0.598385 -0.6520422 -2.6458645
C -0.06531887 0.9233774 0.49545032
C 0.814578 -0.28906515 0.5977072
H -1.3199652 -0.92177457 0.42204756
H -0.5792066 1.279277 1.3834099
H 0.22321367 1.6968508 -0.20936204
H 0.91791624 -0.78572434 1.5584514
H 1.6923957 -0.33148783 -0.038651828
