10

C 0.86963770 0.38982377 -0.17732877
O 0.52183170 1.54801900 -0.86570845
C -0.09634023 -0.44308579 0.22379259
O 0.12998894 -1.65900460 0.77720114
N -1.44717369 -0.14469158 0.16271233
H 0.64975095 2.29636586 -0.26691498
H -1.61078794 0.64388662 -0.44736980
H 1.92462828 0.16397106 -0.04698711
H -2.01659157 -0.94618786 -0.07376750
H 1.07505600 -1.84909680 0.71437055
