10

N 0.8249364 -1.5089537 -0.45450684
C -0.2022665 -0.64845765 -0.36220473
O -1.3328794 -0.81949437 -0.78039354
C 0.20136428 0.64794046 0.36213505
O 1.3319789 0.8172264 0.78335965
N -0.82449657 1.5100724 0.45208263
H 1.7121049 -1.236252 -0.056982033
H 0.7040025 -2.3982246 -0.90709573
H -0.7031588 2.398971 0.90668374
H -1.7115858 1.2371719 0.056921776
