10

N 0.8075978 0.27701727 -1.784988
C -0.7412442 -0.35848653 0.013031976
O -1.5835012 -0.8121378 -0.7360024
C 0.53716475 0.2287611 -0.55558634
O 1.3843764 0.70688534 0.38428432
N -0.8331482 -0.32453415 1.3609295
H 0.035666868 -0.1327433 -2.3115783
H 2.1592617 1.044076 -0.092366405
H -1.667027 -0.6913216 1.79353
H -0.09914706 0.062483616 1.9287455
