10

N -1.2271463 -0.70951664 -0.291792
C -0.6273028 -0.0066214004 0.6981463
O -1.1187012 0.20602673 1.7861602
C 0.766897 0.55753225 0.37886086
C 1.3046807 0.1923413 -0.93111134
N 1.6807452 -0.12232969 -1.9772588
H -2.1426497 -1.0935467 -0.11037382
H -0.78884995 -0.8873871 -1.1804029
H 0.7066768 1.6454076 0.4613779
H 1.4456503 0.21809374 1.1663936
