10

O 1.5916226 1.055158 0.001843416
C -0.117185764 0.23776211 -0.6217788
C 0.13345729 1.2317896 0.46502414
N -0.306302 1.6538374 1.4955089
C -0.5794994 -1.0596344 -0.21862742
N -0.68411493 -1.3484521 1.0185678
H 1.7932123 1.8139347 -0.56369317
H -0.88725823 -1.7194327 -1.0396079
H -1.0848213 -2.280407 1.1205331
H 0.14088933 0.41544402 -1.6577702
