10

O 0.21419339 2.2101507 0.39559567
C 0.118131384 0.88334984 0.16463326
C -1.0028526 0.19494002 -0.21219966
N -0.5695238 -1.1177226 -0.3134343
C 0.7440206 -1.1405368 -0.0005423993
N 1.1947048 0.05942562 0.2947895
H 1.130444 2.3744671 0.65045273
H -2.0198066 0.49285382 -0.4086928
H -1.137756 -1.9074103 -0.571097
H 1.3284446 -2.0495174 0.00049506774
