11

N -0.57320476 -0.0748425 -0.99141663
C 0.20288816 0.06792634 1.1469802
C -1.6241482 0.1579619 -0.02123255
N 1.7549787 -0.39733988 -0.7879047
C 0.50525296 -0.13469411 -0.2952587
N -1.0496744 0.2451537 1.3167957
H -2.1591778 1.0880075 -0.24382637
H 0.914851 0.06972781 1.9686283
H 2.5446408 -0.0513546 -0.26522624
H -2.3620384 -0.65335286 -0.038328752
H 1.8456318 -0.3171932 -1.7892101
