11

N -0.83311661 0.86768253 1.20370731
C -0.14834633 -0.20749333 1.13854339
C 0.29338861 -0.45482644 -0.26010923
N 1.00423288 -1.55503854 -0.65726294
C -0.87299311 1.36882997 -0.16567330
N -0.12754870 0.48031261 -1.03445790
H -0.45169910 2.38010666 -0.19057942
H 0.05812496 -0.82798899 2.00707933
H 1.59658208 -1.99959647 0.02680979
H 1.40082559 -1.49690498 -1.58278370
H -1.91945024 1.44491698 -0.48527322
