11

N -0.892143 -0.2089683 0.77478737
C 0.2854838 -0.4865485 0.19594446
C -1.3354378 0.8668765 0.11104752
N -0.47827545 1.282373 -0.9436391
C 0.5678556 0.43123913 -0.82613117
N 1.0850164 -1.5105599 0.6566717
H -2.3590474 1.225697 0.14907534
H 1.4618568 0.54606557 -1.426032
H -0.62960273 1.9610114 0.12638406
H 1.7125614 -1.9133719 -0.020549398
H 0.58173245 -2.193814 1.2024411
