11

N -0.52776015 -0.7100878 -1.3562548
C 0.15719743 0.25922024 0.5026406
C 1.3131155 -0.0060668834 -0.2984216
N 0.82033044 -0.6135665 -1.4708505
C -0.95499855 -0.116867356 -0.21182401
N 0.20583548 0.7990053 1.7903585
H 1.0975331 1.2417016 1.9623251
H -1.0759462 -1.0217915 -2.139266
H 1.5313048 -1.249101 -0.7823208
H -2.0130177 -0.016310861 -0.0014037071
H -0.55359405 1.4338646 2.005017
