14

C 1.85195615 0.40952141 1.03014054
N 1.44726931 0.04176423 -0.31315113
C 0.12517028 -0.04696827 -0.68141184
O -0.66916974 -0.25075360 0.40308318
N -0.20298178 0.04258181 -1.90650156
C -2.05020037 -0.44362078 0.14821304
H -1.19010220 -0.11861915 -2.06593617
H 2.93440448 0.27814281 1.10352142
H 2.00666016 0.38366752 -1.07829473
H -2.21974557 -1.33056715 -0.47569020
H 1.37598142 -0.25150973 1.75694033
H -2.51656693 -0.59365379 1.12192252
H 1.60274050 1.44569831 1.29434798
H -2.49541598 0.43431635 -0.33718322
