9

O -1.273426 -0.093569174 0.9876662
C 0.7154901 0.5407049 0.018024743
N 0.09498841 0.029163694 -1.2177463
C -0.1724895 0.4947273 1.098054
C -0.23826952 -1.1103796 -0.7154228
O -0.35017508 -2.2456827 -0.5542392
H 0.13413689 0.95445025 2.0496328
H -0.6581223 0.57366556 -1.642841
H 1.7478671 0.8569197 -0.023128387
