11

C 1.04304890 -1.70533303 -0.09121804
C 0.42917356 -0.52375766 -0.04441913
C -1.00040650 1.17622920 0.28915687
C -0.88585949 -0.14810240 0.45959783
N 0.17547795 1.73552003 -0.21136605
O 1.02911846 0.62710048 -0.51712391
H 0.53734159 -2.58326011 0.29333168
H 0.05876493 2.22376396 -1.09676481
H 2.03969404 -1.81193167 -0.50223369
H -1.82327168 1.83875367 0.52742908
H -1.60308210 -0.82898250 0.89360977
