10

O 0.09323959 -0.027731847 -2.0391166
C 0.40830475 1.0154167 0.23183961
C 0.35690144 -0.281853 1.0984242
N -0.7135109 -0.83645797 0.051832657
C -0.11433333 0.16608486 -0.87249774
H 1.3648062 1.4944905 0.011321342
H 1.2440621 -0.88036007 0.83378273
H -1.6641353 -0.6069821 0.35143542
H -0.66814685 -1.8046516 -0.2666015
H -0.30718765 1.7620445 0.59957993
