10

O 0.11856084 0.21288040 -2.02684102
C 0.66081698 0.83029286 0.35421487
C 0.24899200 -0.50693675 1.04612308
N -0.91202473 -0.61456355 -0.04437211
C -0.05026507 0.30224455 -0.84144537
H 0.16466075 1.68687258 0.82825663
H -1.77180824 -0.18005520 0.29925929
H -1.12160741 -1.50987137 -0.48636319
H 0.94832090 -1.28136159 0.69044751
H 1.71435388 1.06049848 0.18072017
