10

O -1.0530187 1.3124213 0.33651012
C 0.010173604 0.58815 0.5638287
C 1.067827 0.3382156 -0.6308903
O 0.44869864 -1.0028975 -0.886112
C -0.39684469 -0.7768927 0.06922258
O -1.514322 -1.4099115 0.16194214
H 2.1253533 0.20903556 -0.4059894
H 0.53534126 0.62308866 1.5452483
H -2.0806892 -0.8512123 0.7379821
H 0.8574807 0.97000283 -1.4917421
