10

O -0.058584463 -2.0667508 0.26918215
C -0.39212683 0.4672013 0.54581594
C 0.3801506 0.9523221 -0.76654774
O 0.25221214 0.3738265 1.6738445
C -0.11676007 -0.84974766 -0.14825027
O 0.5243362 -0.4805199 -1.2094022
H -0.13821031 1.5039599 -1.5512575
H 1.3748382 1.3326806 -0.5376462
H -1.4490631 0.82000655 0.53056526
H -0.37679246 -2.0529783 1.193696
