11

C -1.2152088 -0.24788477 0.6218386
C 0.038523376 -0.8075043 0.0057810335
C 1.108964 0.0432833 -0.52665836
O 0.22088474 -0.6058347 -1.3975438
C 0.9487699 2.6124427 -0.3713196
N 1.0105078 1.4441061 -0.45472473
H -1.4039207 0.77041966 0.27206442
H 0.34149027 -1.8021646 0.33827403
H -1.1197423 -0.23395309 1.7114191
H 2.1421537 -0.299367 -0.558464
H -2.0724225 -0.8735436 0.35933337
