12

N -2.1305122 0.56198657 -0.078398794
C -0.7864265 0.19829282 -0.04121195
N 0.15222946 0.8193145 0.6358548
C 1.3075992 0.16083482 0.30494615
O 2.4932168 0.540207 0.8303046
C 1.0849687 -0.86711067 -0.55723965
N -0.30090585 -0.83583784 -0.7657586
H -2.2918224 1.313738 0.58164966
H -2.753666 -0.20944668 0.120693184
H 2.3025887 1.2750981 1.4273196
H 1.733293 -1.6087143 -0.9933536
H -0.81056255 -1.348362 -1.4648056
