11

C -1.8017397 0.7289751 0.7282713
C -0.3572534 0.76132524 0.502772
N 0.57245463 0.7879791 -0.24559182
C 1.4293959 -1.3029354 -0.50012183
C 1.55404 0.09761489 -0.7995699
O 0.52267116 -1.7634916 0.18632412
H 2.335475 0.58468765 -1.3642974
H -2.095067 1.4406922 1.5027258
H -2.0102623 -0.28089216 1.0980287
H -2.3672414 0.90064067 -0.19190705
H 2.2175257 -1.954596 -0.91663384
