11

C -0.77295077 0.8789081 1.5443434
N 0.5852193 0.5196376 1.17777
C 0.83513415 -0.053242825 0.096479796
O -0.14399393 -0.38772184 -0.8415
C 0.25283912 -1.0277762 -1.9656289
O 1.3766011 -1.3419148 -2.2383122
H -0.78948 1.9531466 1.7514507
H -1.0155331 0.36543584 2.479727
H -1.5369643 0.6452667 0.7944562
H 1.8394569 -0.33510166 -0.2067631
H -0.6303285 -1.2166374 -2.5920227
