11

C 0.09770682 2.3295567 0.5088739
C -0.16366777 1.1368119 -0.12354822
C -0.004631014 0.05638426 -0.8192229
C -0.38482156 -1.29312 -0.39895862
O -1.5407889 -1.6016157 -0.17629749
N 0.66731954 -2.180123 -0.29706347
H 0.3888504 -3.148457 -0.22521232
H 1.4940672 -1.9902709 -0.8392207
H -0.92549294 1.1081288 0.7609779
H 1.085059 2.5578513 0.90329814
H -0.7136008 3.0248535 0.7063738
