9

N -0.7529583 -2.2652044 -1.00246
C -0.19693455 1.2088927 -0.35945275
C -0.65314853 -1.2903497 -0.38961762
C -0.537973 -0.045935344 0.36246443
N 0.83874834 0.27098837 0.7437513
H -1.2408817 -0.0042703557 1.19512
H 0.2139088 0.94394237 -1.3438158
H 1.5278927 -0.20671867 0.16824219
H 0.8013462 1.388655 0.6257683
