10

N 0.62630356 0.00912339 0.37056860
C 0.14092220 0.50880224 1.54954274
O -0.99756941 0.37800446 1.93392971
C -0.24850532 -0.64704395 -0.57601186
C -0.41391725 0.13943450 -1.80879152
N -0.51314134 0.75205249 -2.78130400
H 0.91994421 1.03393040 2.13048461
H -1.21651514 -0.76338750 -0.08203182
H 0.12841074 -1.63998512 -0.83996055
H 1.57406784 0.22906904 0.10357395
