9

O 0.40854058 -1.7470913 -0.11467091
C -0.13586213 0.025258224 1.4483134
N 0.07098663 1.5713725 -0.8512179
N -1.2472502 -0.23945712 0.8991996
N 0.18140906 0.3537779 -1.0615126
C -0.0075513613 -0.46020547 0.11390986
H 0.23816508 0.38099965 2.3970735
H 0.30487555 -1.9127773 -1.0624721
H 0.18668687 2.0281231 -1.7686229
