11

N -2.02584461 -1.06987400 -1.51750419
C -1.63357676 -0.28845781 -0.76538984
C -1.14265675 0.71228185 0.20555486
O -0.00177431 1.39706049 -0.24572298
C 1.14969377 0.64696433 -0.32063081
C 1.30616029 -0.57438049 0.13578429
N 1.45384340 -1.76521514 0.42246054
H -1.91342249 1.47229120 0.34860165
H -0.95904751 0.21359784 1.16624040
H 1.80292066 -1.92321667 1.36886916
H 1.96370383 1.17894864 -0.79826282
