10

N -0.24736787 -1.1134155 1.0231133
C -0.009181981 -0.14143637 0.09733824
C 1.0960218 2.2005353 -0.029310375
C -1.0752847 -1.0779604 -0.208988
C 0.71442366 0.9633036 -0.23523188
H -2.077877 -0.64978737 -0.20634027
H -0.94907594 -1.970405 -0.8200469
H 1.1449078 0.09273473 -0.93114513
H -0.57694423 -0.7913128 1.9242811
H 1.9803784 2.4877434 -0.61367
