10

N 1.28435687 -0.69764068 0.72596739
C -0.99078285 0.25983153 0.20884048
C -1.45704053 1.03790515 -1.00068525
O -0.42912053 1.09296992 -1.77411688
C 0.43782545 -0.05289891 -0.12184097
N 0.79916341 0.40502062 -1.26088216
H -1.61538655 -0.62927619 0.35063907
H 0.88573086 -1.31244365 1.41591170
H -1.08998314 0.87618082 1.11032113
H 2.17523693 -0.97964863 0.34584569
