10

N 0.8777647 0.85965085 1.0741663
C -0.9074507 -0.5156973 -0.058025144
C -1.0438342 -0.91021675 -1.5111257
O -0.0038289612 -0.41515988 -2.0865872
C 0.3814537 0.2500215 -0.036290295
N 0.93770033 0.3253911 -1.1863248
H 1.8167641 1.2224053 1.0080029
H -0.90078026 -1.4084034 0.5774121
H 0.6083882 0.49697068 1.9735038
H -1.7661768 0.09503779 0.24526785
