9

O -1.5744246 -0.09998725 0.5134755
C 0.38442275 -0.43141907 -0.34594384
C -0.8136054 1.024712 0.5742459
O 1.3246537 -0.8258087 -1.2319868
C -0.888902 -1.1003826 -0.1625573
N 0.3600635 0.9259126 0.08771274
H 0.38486156 -1.1370217 0.6411093
H 2.0884078 -0.24500461 -1.120417
H -1.2654771 1.8889993 1.0443615
