9

O 0.607468 0.21637757 1.5836551
C 0.27595255 -0.3796093 -0.5253799
C -0.72035795 0.5215638 1.1624911
O 0.73155475 0.166858 -1.7148681
C 1.3144978 -0.27863422 0.58452415
N -0.9705431 0.24317563 -0.030427778
H 0.06283538 -1.4653885 -0.6052824
H -1.3513505 0.95695 1.9268373
H 0.049942978 0.01870695 -2.3815494
