10

O 1.2121378 -1.0065666 -1.4581319
C 0.43950543 -0.32683498 -0.61082107
N -0.694056 0.23811753 -0.87942094
C -1.0381095 0.7948984 0.3587655
C -0.05746738 0.61661196 1.3949807
N 0.83218825 -0.19017366 0.68941337
H -1.8894012 1.4639173 0.43382517
H 1.6697569 -0.59742326 1.0759246
H 0.77633256 -0.98057145 -2.3220382
H -1.250887 -0.011975337 1.317503
