10

O 1.8856841 0.30029443 0.96993834
C -1.3126192 -0.39537546 -0.16921148
N 0.51875263 0.5212536 -0.9138929
C 0.6868266 0.08529321 0.42771435
C -0.6997385 0.26844266 -1.3882381
N -0.3387906 -0.45556268 0.9285147
H 1.8587376 -0.04510382 1.8743216
H -2.2083988 0.15535803 0.13961053
H -1.6489958 -1.4050624 -0.4324825
H 1.2585422 0.9704624 -1.4362744
