11

N 0.18895409 -0.25879288 -0.43473566
C 0.0133577 -0.42474627 0.9010665
O -0.5117608 0.48318896 1.6510441
N 0.30264258 -1.4443799 1.6681014
C -0.18223833 0.90204555 -1.1122782
N -0.0026453782 0.9854796 -2.363153
H -0.23569411 -0.49501753 2.443294
H 0.5919295 -0.99994344 -0.9896138
H -0.6113269 1.6526108 -0.4476846
H -0.33004832 1.8872608 -2.7003057
H 0.7768299 -2.2877057 1.3842643
