11

N -1.4924934 -0.49200875 -0.41406134
C -0.6295799 -0.30974308 -1.6678874
C 0.52659386 0.05722514 -1.0588123
N 1.3956414 0.40221247 1.2550535
C 0.38443616 0.102536194 0.39613733
N -0.8042949 -0.20790619 0.82767653
H 1.144477 0.57052606 2.2166882
H -1.8371236 -1.452523 -0.38776645
H -2.3145561 0.10793535 -0.49281186
H 1.4586915 0.28776777 -1.5633732
H 2.168208 0.933978 0.88915724
