11

N 1.4172555 1.0758895 0.80384344
C 0.2131767 -0.017163819 -1.1008089
C 0.38902998 0.3364385 0.2725981
N -1.3037479 -0.89707816 0.17499973
C -0.9487956 -0.7495236 -1.2397608
N -0.5344563 -0.19438572 1.0569704
H -2.249402 -1.1140811 0.46375614
H 1.8320149 1.7515428 0.181782
H 0.8857388 0.24705938 -1.9061773
H -0.9427454 -1.8664973 -0.44075125
H 1.2419313 1.4277995 1.7335485
