12

N 1.42238755 0.29807120 -0.41866939
C 0.20749870 0.38160859 0.38826903
N -0.76918508 -1.78455498 0.01075201
C -0.19825055 -1.01535449 0.85533849
C -0.81823044 -1.24123469 -1.24201132
C -0.97297649 0.79478366 -0.48439737
N -1.50181776 -0.10341558 -1.24025016
H 1.69700499 1.22315500 -0.72611726
H 2.19376931 -0.06871565 0.13079092
H -0.09325252 -1.32059701 1.89467522
H 0.27593889 1.06059663 1.25247842
H -1.44288639 1.77565729 -0.42085858
