12

N -0.52743345 -0.92759925 0.73237497
C -0.6713214 0.58826023 -1.0851679
N 1.4989355 -0.78795934 -0.15460585
C 0.16533694 -1.4090122 -0.40321603
C -0.11907005 0.8226865 0.27979133
C 1.3147975 0.4368117 0.1816818
N -0.5708908 -0.6256546 -1.4754536
H -1.1267927 1.3654011 -1.6921728
H -1.537759 -1.0750579 0.7146767
H -0.4449671 1.6603843 0.8932709
H -0.117393956 -1.168166 1.6339581
H 2.1365585 1.1199057 0.37486216
