12

N 2.1656146 0.39430594 -0.69724613
C 0.8860417 0.16421291 -0.28351954
N 0.706041 -0.84389925 0.5843785
C -0.53945756 -1.0253627 1.0055532
C -1.6071295 -0.23989183 0.5882081
C -1.2920552 0.765325 -0.3200501
N -0.06126123 0.98244965 -0.76854753
H 2.286192 0.96748435 -1.5155065
H 2.8319254 -0.34327614 -0.53263783
H -0.6924818 -1.8429601 1.7086924
H -2.6181488 -0.40269887 0.94096804
H -2.0652804 1.424311 -0.7102926
