11

N 0.011180084 1.3356124 -1.1919147
C -0.67647463 -0.24866077 0.7577538
C 0.33509976 -0.7895817 1.4311451
C -0.65422 0.058693707 -0.7021756
C 0.62766564 0.1450208 -1.4131174
O 1.6384631 -0.34899774 -1.8163693
H 0.38808444 2.0243423 -0.54365027
H 0.26272038 -0.9759194 2.4981606
H -1.5896833 -0.119107805 -1.2321167
H -1.6024336 0.0019926298 1.2733482
H 1.259598 -1.0833944 0.9389359
