12

N -0.45295435 -0.45259863 1.9184306
C -0.14184803 -0.13553049 0.59822774
C -0.927269 0.72303945 -0.17484625
N -0.59526825 1.0824543 -1.4116389
C 0.5388885 0.5803828 -1.8937036
N 1.365678 -0.24637932 -1.2586185
C 1.0206165 -0.5978022 -0.024728954
H -1.4279546 -0.38124734 2.166074
H -0.03777327 -1.3076909 2.2603798
H -1.8546866 1.1344651 0.22263233
H 0.81704676 0.87454075 -2.901936
H 1.6955245 -1.2736337 0.4997274
