10

C 1.3816713 -0.2583043 0.92643857
O 1.7162302 0.84872574 0.6045236
C -1.3369048 0.5808424 -0.18649636
O -1.5630233 0.740031 0.98355174
C -0.25155076 -0.3241438 -0.7279421
O 0.42932403 -0.99135983 0.319735
H -0.7063448 -1.1008576 -1.350271
H 0.44346306 0.26392782 -1.3372995
H -1.9307971 1.0902538 -0.9750693
H 1.8179322 -0.8491154 1.7428293
