10

O 0.3367077 -0.5080834 -2.2359743
C 0.14871454 -0.32331577 -1.06965
C -0.9081432 0.48484492 -0.26564297
C 0.009293649 0.2688587 0.9407391
O 0.073990904 -1.1305108 1.1355773
C 0.97489804 -0.5544362 0.1879158
H -1.9098306 0.059402928 -0.17032766
H -0.96335864 1.5136366 -0.63207775
H 0.20155118 0.91919005 1.7863355
H 2.0361764 -0.729587 0.32310498
