10

O 1.4071387 -0.9646658 1.563284
C -0.84443337 -0.83701515 -1.0366482
C -0.7529805 -0.4501673 0.40004423
C 0.70923644 -0.39910027 0.77672285
O -0.5522486 0.74264514 -0.46768594
C 0.89600176 0.7525463 -0.20888206
H 1.1702975 1.7075247 0.24951863
H -1.5617505 -0.3804335 1.1294521
H -1.9180546 -0.7223725 -1.2792054
H 1.4467931 0.5510384 -1.1266004
