9

O 0.33472114 -1.73392022 -0.44751164
C 0.09319309 -0.43228590 -0.37597826
N -0.00993380 0.36509752 -1.37407573
N -0.27250438 1.65505462 -0.81063153
N -0.32283061 1.64024779 0.43533582
C -0.09047151 0.28628280 0.91343715
H 0.42011804 -1.96859868 -1.38502903
H -0.94907887 -0.06796801 1.49151713
H 0.79678697 0.25609015 1.55293602
