9

O 0.83982545 -1.7207079 -0.62463826
C 0.27344495 -0.57486445 -0.2141858
N -0.66117865 0.06646946 -0.8959263
N -0.90788746 1.1221756 -0.12346825
N -0.21642365 1.2133957 0.9896551
C 0.5596802 0.13238692 0.96718025
H 0.44426832 -1.9622141 -1.4715965
H -1.5937613 1.81304 -0.3826266
H 1.2620322 -0.08968117 1.7556063
