9

O -0.90599704 -0.589978 0.7210949
C 0.039246093 0.25255606 1.3161597
C 0.34584972 0.31126553 -0.8620339
C -0.73547226 -0.546099 -0.57077545
C 0.83332026 0.9428502 0.4401873
H -0.06625217 0.28083602 2.392251
H 0.589462 0.67053556 -1.8562598
H -1.4092755 -1.1381363 -1.1768881
H 1.309119 -0.18383028 -0.40373576
