9

O 2.5041196 -0.3049027 -0.053625952
C 1.4270072 0.21996386 -0.13281994
C 0.21134956 -0.23400299 0.6654514
C -1.0229865 -0.09433905 -0.10703319
C -2.0112267 0.036467426 -0.777897
H 1.2528125 1.0988774 -0.78857833
H 0.16016212 0.39452052 1.5647259
H 0.37372318 -1.2643293 0.99841964
H -2.8949602 0.14774479 -1.3686426
