12

C -1.27144519 -1.85496338 -0.15708115
N 0.19622396 1.15498968 -0.05603048
C 0.31683054 -0.20749701 -0.51337010
N -0.38121562 -1.12914160 0.36955186
C 1.03754322 1.70115507 0.86575732
O 0.84087780 2.75372819 1.43192650
H -0.69944402 1.61272996 -0.14760690
H -0.02716560 -0.26784696 -1.55792772
H -1.52307928 -1.81575213 -1.22721726
H 1.38053679 -0.47521498 -0.49192122
H -1.81784793 -2.56359286 0.46525219
H 1.94818512 1.09140626 1.01866655
