12

C -1.1239775 -1.859033 -0.7284662
N -0.15792203 -1.1818382 -0.017295102
C -0.15589279 0.19327125 0.21117428
N 0.5557391 0.71148974 1.2446741
C 1.0684868 1.7916814 0.5891805
O -1.0924182 -3.0424063 -0.96295226
H 0.62186176 -1.7316476 0.31665567
H -1.9425468 -1.1929493 -1.0615349
H 1.8922449 1.6214504 -0.10992446
H -1.1283817 0.6453188 0.012012046
H 0.31841767 1.2941117 -0.61152565
H 1.1443887 2.7505507 1.1180019
