13

N -0.81192397 -0.12134922 -2.12002857
C -0.37991010 -0.05740415 -0.94370603
C -0.18634764 -0.60902353 0.41161908
N -1.32622809 -0.60013083 1.29587263
C 0.40027137 0.76034102 -0.00971718
N 1.82544657 0.82862083 -0.22184273
H -1.32037890 -0.99780525 -2.26541135
H 0.56946727 -1.39616232 0.50059013
H 2.03156783 1.42366881 -1.01660540
H 2.27992144 1.23223039 0.59086895
H -0.13439502 1.61063016 0.41981269
H -1.93005103 -1.39166951 1.10076419
H -1.01744019 -0.68194613 2.25778372
