13

N 1.3943363 1.3892394 -0.44036594
C 0.10882535 -0.68814224 0.2994707
C -0.59929264 -0.042117096 -0.8229717
N -1.3101141 -0.07425547 -1.8564898
C 0.16006343 0.8416147 0.06704062
N -0.6948901 -1.167066 1.3976439
H -0.44177467 1.4081079 0.7813459
H -1.581922 -1.0373677 -2.0718338
H -0.11829633 -1.2806685 2.223447
H 1.9318056 1.7980713 0.31721678
H 1.0428091 -1.197908 0.041453816
H 1.1999104 2.1244383 -1.1111095
H -1.0914601 -2.0739467 1.1751522
