11

O -1.572463 0.0622654 1.8033402
C -0.700624 0.01623829 0.7839358
N 0.3980931 0.70970464 0.6645975
C 0.9223113 0.29898828 -0.54172266
O 2.0815477 0.81662595 -0.99706507
C 0.14134173 -0.63898355 -1.1463403
N -0.92602086 -0.8103107 -0.25179428
H -1.2250068 0.70674914 2.4331448
H 2.3731127 1.4517112 -0.3300975
H 0.22009325 -1.1827024 -2.0722528
H -1.7123852 -1.4302864 -0.34574637
