11

O -1.0303878 -1.3215144 -1.6426312
C -0.5220224 -0.5465519 -0.6888164
N -0.52682924 0.70987123 -0.5650796
C 0.66553795 -0.41029963 1.269353
O 1.0788457 1.9564999 0.71243024
C 0.13897035 0.9329373 0.73801666
N 0.1566303 -1.2309605 0.36383083
H -1.4580106 -0.7411911 -2.2870138
H 1.8806251 1.6268299 0.2868102
H 0.25572395 -2.2368782 0.36869293
H -0.63908315 1.2612569 1.4444075
