11

O 1.5715225 0.3225577 1.7703476
C -0.06943289 0.6319212 -1.226037
N 0.78556037 1.1652104 -0.3228406
C 0.64086175 0.3104755 0.7931398
O -1.5126238 -1.3269818 -1.2624532
C -0.623585 -0.527815 -0.66507506
N -0.18925638 -0.73473084 0.58016336
H 1.3317844 -0.3848707 2.3847265
H -1.7046611 -2.0510285 -0.65083665
H -0.31052586 1.1207465 -2.1592174
H 0.0803559 1.4745153 0.75808305
