10

O 0.6325594 -1.4340446 1.7085749
C 0.34905088 -0.63572896 0.8635036
C -0.98995775 -0.0040042824 0.3892446
C 1.0889376 -0.04300868 -0.3295987
O 0.7995875 1.358449 -0.2968537
C -0.19322844 0.49490204 -0.81923753
H -1.7305003 -0.78277606 0.18018556
H 1.9807042 -0.36197674 -0.85387987
H -0.5089805 0.6270828 -1.8479272
H -1.4281726 0.7811056 1.0059882
