10

O 1.58374086 -0.93475124 1.41203704
C 0.80080131 -0.38015998 0.69700932
C 0.86330976 0.17124017 -0.72224871
C -0.60587578 0.29099977 -0.70827186
O 0.21298483 1.44499017 -0.66293802
C -0.74054274 -0.18213909 0.74159662
H -1.29036191 0.17099220 -1.54040795
H 1.56184248 -0.00146209 -1.53100394
H -1.24826014 -1.14189451 0.88190704
H -1.13763864 0.56218466 1.43232047
