12

O -1.25127920 1.02216944 -2.20903602
N 1.20202107 -0.61065292 0.78969702
C 1.06870267 0.32507007 -0.36340928
C -0.27032023 -0.65928506 0.99498131
N -1.36224262 0.39564756 -1.10983414
C -0.41034197 0.12214975 -0.28382582
H 1.39119601 1.35454571 -0.16009953
H -0.62423061 -0.12996861 1.89083033
H 1.68413952 -0.18661646 1.57390854
H -0.67885321 -1.67646883 1.00364159
H -2.30253928 0.06917412 -0.84738493
H 1.55374777 -0.02576455 -1.27946887
