17

C -0.56480879 2.06326250 -0.06399056
N 0.03526512 0.74065943 -0.01860552
C -0.46486356 -0.14694016 0.86963936
O -1.37499682 0.02819890 1.65133755
N 0.13324412 -1.49775106 0.83144372
C -0.46335793 -2.48575726 -0.20212070
C 1.19359900 0.50406910 -0.87088168
H -1.41731569 2.08387121 0.61350884
H 0.16411257 2.82373073 0.24138832
H -0.90052643 2.28045253 -1.08411251
H -1.53626088 -2.44431265 0.04471113
H 1.14438791 -1.46760429 0.70166510
H -0.03627915 -1.89790883 1.75341475
H 2.13345950 0.75430521 -0.35955454
H 1.10249823 1.13185151 -1.76127562
H 1.21866991 -0.53855544 -1.19694016
H -0.36682704 -1.93157143 -1.14962700
