12

N 0.72361810 -1.27148181 1.39994132
C -0.25824572 -0.49012604 1.07825145
C -0.11376940 -0.03523921 -0.31525032
N -0.45265880 1.36812592 -0.66023465
C -1.28203860 0.20834176 -1.23591792
N 1.16499407 -0.50951810 -0.73204903
C 1.56716602 -1.21179338 0.26820366
H -0.75019559 1.96013101 0.11079070
H -1.11015975 -0.30824565 1.73016412
H -2.19921533 0.21985182 -0.62768972
H 0.19653432 1.81010885 -1.29787707
H 2.51397104 -1.74015510 0.28166777
