12

N 0.24117793 -0.009741052 1.6914606
C 0.35853624 -0.92481446 -0.58823234
C -1.7037847 0.20779845 0.43439198
N 0.23601381 1.3769737 -0.32875243
C 0.8438144 0.98696804 -1.387287
N 0.94227713 -0.4184451 -1.6087676
C -0.21058099 0.13760068 0.3184426
H 1.2840849 1.6668497 -2.1096036
H 0.30254692 -0.9834667 1.969419
H -2.1627867 -0.5114425 -0.27374154
H -0.39331552 0.4715995 2.3258877
H 0.2620167 -1.9998803 -0.44321725
