9

O -1.120208 0.36963263 -1.0523326
C 0.07389827 -0.09086665 -0.5156528
C 0.4874683 0.7409929 0.70230186
O -0.23185183 1.6243991 1.0982704
C -0.003077524 -1.5051314 -0.066302
N -0.052506424 -2.5940049 0.31706837
H -1.4791913 1.0009223 -0.40386853
H 0.8786467 -0.029912127 -1.2631054
H 1.4468218 0.48396814 1.1836208
