10

O -1.6851363 -0.59501153 -1.5269437
C -0.80312765 -0.26811317 -0.77841735
C -0.3743962 -0.61997 0.66116667
C 0.7704105 0.39960143 0.44435984
N 0.2442362 0.6097046 -0.8996659
H -1.1125188 -0.35182506 1.4205712
H -0.06618868 -1.6590728 0.7911436
H 0.7257023 1.2883146 1.0821126
H 1.7804077 -0.019275125 0.46470594
H 0.5206108 1.2156471 -1.6590332
