9

O 0.05406893 -1.85315711 -0.14717997
C -0.07686549 -0.53561790 0.22054214
N -0.44798103 -0.29860413 1.44519356
N -0.76785741 -0.08274606 2.50531769
N -0.10447951 1.77569116 -0.38589384
C 0.05514734 0.55789859 -0.72385892
H 0.96437849 -2.14008059 0.00729433
H 0.29992922 0.19185305 -1.72991408
H 0.02365944 2.38476309 -1.19150079
