9

O 0.81879926 -1.6748433 -0.7639826
C 0.27090603 -0.5622421 -0.24659847
N -0.30633178 -0.5128691 0.9412003
N -0.6912158 0.7581361 1.0237813
N -0.41067585 1.526413 -0.0067081247
C 0.21181512 0.7077075 -0.8492192
H 0.6986705 -2.389977 -0.12648709
H -1.1694402 1.1109005 1.8373106
H 0.5774727 1.0367745 -1.8092966
