11

N -0.0678202 -1.6380397 0.13000207
C 0.20570597 -0.57481974 0.93230635
O 0.78921497 -0.62697303 1.9949695
C -0.24897407 0.74465823 0.36048582
C 0.2548451 1.192512 -0.94073427
O -1.0706327 0.69725025 -0.80028903
H -0.7251903 -1.5232964 -0.62681895
H 0.12966862 -2.5613813 0.48472518
H -0.5286396 1.4848666 1.107339
H 0.33208346 2.260043 -1.1447678
H 0.9297389 0.54518014 -1.4972184
