10

O -1.9645821 0.9905207 -0.18644762
C -0.8067813 0.35007888 0.041280918
N -0.4768644 -0.30196217 1.1180102
C 0.8002587 -0.7657366 0.8561702
C 1.2171592 -0.38271257 -0.38029525
N 0.15704437 0.34881747 -0.9084535
H -2.4937346 0.8651023 0.614306
H 1.3387928 -1.3523103 1.5874919
H 2.1306696 -0.54636675 -0.93269086
H 0.09803787 0.794569 -1.8093718
