10

O -1.36849 -0.41554964 0.7144554
C -0.15920596 -0.5509982 -1.1395836
N -0.57019883 -1.3742001 -0.077500686
C -0.42954192 0.5482033 0.61067116
C -0.13186505 0.76707125 -0.7953984
N 0.4543017 0.3893196 1.5852792
H 0.4082779 -0.88850844 1.0440084
H 0.21695325 -1.0244734 -2.039085
H 0.27548894 1.6241035 -1.3078492
H 1.3042802 0.92503214 1.4050028
