11

N 1.3654451 -0.6727615 2.593859
C 0.6598706 -0.6754688 1.6810431
C -0.24354072 -0.6524267 0.5157269
C -0.53182983 0.7432397 -0.07474512
C 0.24342437 0.22099128 -1.2916765
O 0.40392572 -1.0745103 -0.6836413
H -1.1213502 -1.2644733 0.74657595
H -1.5918865 0.93251234 -0.24602152
H -0.08202184 1.5798405 0.45956787
H -0.31393194 0.16216907 -2.2292464
H 1.2118949 0.70088804 -1.4714419
