11

N 1.9606879 -1.0551205 0.7298959
C -0.9870202 1.0118365 0.1332582
C 0.16671214 0.33682227 -0.6034865
C -0.49587014 -0.9685562 -0.048597522
C 0.8684881 -0.5993894 0.29731694
O -1.4698051 -0.23200643 0.6778277
H 2.707495 -0.3802323 0.5779874
H -0.8016888 -1.8876647 -0.53464174
H -1.7310716 1.4371676 -0.5495638
H 0.5190598 0.59984344 -1.595655
H -0.73698676 1.7372996 0.91565853
