11

O 0.9790762 0.16354415 -1.3102893
C 0.7297292 1.2949061 -0.828729
N 0.41221347 1.3861997 0.42163238
C -1.9288447 -1.5614552 0.051760286
C 0.52718586 -0.7679517 0.52917415
C -0.8065226 -1.1731553 0.24917188
H 0.71244776 -0.5115077 1.5634823
H 1.2998122 -1.3946203 0.09925123
H -2.9234767 -1.9065943 -0.13051064
H 0.7946085 2.1790676 -1.475557
H 0.20377079 2.2915668 0.8306137
