11

O -0.49380238 -0.73106446 0.93141693
C -0.67942110 0.28964287 -2.39124509
N 1.61549245 0.16913951 0.81290317
C -0.80600435 0.34167591 -1.19942681
C 0.83019328 -0.75979385 1.15473818
C -0.99113428 0.42233619 0.25209689
H -0.56213678 0.24668934 -3.45190977
H -0.50478386 1.32084447 0.64139839
H 1.07883460 -1.69008041 1.67332787
H 2.56917097 -0.05685529 1.08337972
H -2.05640868 0.44746556 0.49332041
