10

N 0.99507254 0.6173058 -0.43051142
C -0.14339393 0.8383456 0.4439827
O -1.8428752 -0.8844621 0.90668154
C 1.0756367 -0.6010864 -0.990151
C -0.83452064 -0.5164364 0.36308262
N -0.025785878 -1.2529069 -0.5000584
H -0.24451935 -2.2063267 -0.744226
H 1.6903266 1.3192883 -0.6140276
H -0.8130059 1.6274614 0.08792422
H 0.14306529 1.0588175 1.4773031
