10

N -0.41108903 -0.99462209 -0.81377618
C -0.71327841 -0.59203566 0.48547702
O -1.49496297 -1.10501733 1.24280171
C 0.16843642 0.63058856 0.70320202
C 0.52147263 -0.23725120 -1.47325363
N 0.85164473 0.70649544 -0.57631703
H -0.44802901 1.50978730 0.91496022
H -0.85578555 -1.79507124 -1.23567383
H 1.53381337 1.41185703 -0.79298916
H 0.84777821 0.46526925 1.54556896
