10

C -0.32101408 0.92022353 1.1562314
N 0.2038738 0.65320015 -0.89417154
N -0.79736215 0.41205347 0.014087044
C -0.09436871 -1.1994464 -0.72042644
N 0.87144136 1.480703 0.97012806
N 1.201331 1.2605556 -0.2883334
H 0.9696324 -1.3749555 -0.84775627
H -0.50456357 -1.7332417 0.13423696
H -0.84929246 0.9042264 2.0991223
H -0.67967755 -1.3233184 -1.6231183
