10

C -0.28575858 -0.44708610 -1.28867814
N 1.43887490 -0.22046732 0.41211616
N 0.16249949 -0.05194120 0.03371165
C -0.48986241 0.55154789 1.03850000
N 0.35392251 0.74908097 2.02463517
N 1.53474660 0.25835305 1.59880493
H 0.32214917 -1.29200789 -1.61036926
H -1.33445982 -0.74340858 -1.24305297
H -0.16542780 0.38008855 -1.99165613
H -1.53668431 0.81584053 1.02598857
