9

N 1.044119 0.40292546 0.30449602
C 0.13865416 0.9498652 -0.6554165
C -0.7434009 -0.8891637 -0.08372575
N -0.9208597 0.15525249 -0.90096724
C 0.41815025 -0.73524415 0.6762483
H 0.4580127 1.76144 -1.3010083
H 0.80899197 -1.3488293 1.476297
H 0.25633386 1.4050429 0.5290054
H -1.4600013 -1.7012892 -0.04492902
