9

N 0.20293976 0.99213976 -0.6906302
C -0.6176669 0.8210334 0.49403375
C 0.25864875 -1.1246908 0.12271783
N -0.53082794 -0.5526125 0.9550627
C 0.71403414 -0.16515432 -0.90020806
H -0.28443897 1.501151 1.2858677
H -1.6592026 1.0737633 0.26619005
H 0.5301658 -2.1737127 0.19461438
H 1.3863479 -0.3719171 -1.7276481
