9

O -0.22661494 -1.19136913 1.75907392
C 0.80780242 0.42686070 -3.74996698
C 0.33825519 0.32868092 -1.28906107
C 0.11301049 0.27785376 -0.11193736
C -0.19575411 0.14672684 1.32041141
N 0.58755123 0.38469756 -2.59176678
H -1.14279936 0.66681163 1.52990674
H 0.58318090 0.63804561 1.91052521
H -0.86463162 -1.67830778 1.22281507
