9

O 0.8439024 0.41632897 1.8473452
C -0.90638685 -1.9742666 -2.0406547
C 0.6623723 0.91022104 0.5444173
C 0.077210754 -0.07093501 -0.37988868
C -0.41254923 -0.90399206 -1.1055338
N -1.9538192 -1.4643904 -1.7418588
H 0.034035303 1.8153057 0.5254764
H 1.6534516 1.1963303 0.18144721
H 0.0017829366 0.07539796 2.1692502
