9

O -0.23840226 -1.2146883 1.7537924
C -0.18874931 0.12711044 1.3356178
C 0.11596394 0.26298267 -0.100317135
C 0.33786437 0.32966426 -1.2813964
C 0.59726137 0.41409165 -2.6381993
N 0.8124701 0.4844386 -3.7774622
H -0.917447 -1.6723759 1.2428904
H 0.6038596 0.6020847 1.918601
H -1.1228206 0.666692 1.5464736
