9

O -0.45570466 1.975595 -0.674102
C 0.19819972 -0.24819864 -0.04022863
C 0.43729615 -2.6387146 2.7826183
C 0.2769874 -1.0234413 0.87176377
C 0.043512575 0.7369432 -1.1217647
N 0.36410818 -1.8812208 1.8811957
H -0.5890249 0.30323592 -1.9111097
H 1.0196533 0.9500368 -1.5668586
H -1.2950276 1.8257647 -0.22151391
