10

O -0.9538771 1.8542141 0.9987939
C -0.29741085 1.1065476 0.025632026
C -0.14002046 -0.3365941 0.46377277
O -0.568947 -0.702583 1.5371131
C 0.5380841 -1.2354974 -0.45931906
C 1.1041602 -1.9486345 -1.2455943
H -1.1457206 1.2394102 1.725894
H 0.7058387 1.5071204 -0.18525961
H -0.8480081 1.1112584 -0.9276034
H 1.6059012 -2.5952418 -1.9334295
