10

O -0.690415 -0.74148214 2.1088183
C 0.51614493 0.48347044 -1.1007077
C 0.29739645 -0.22768019 0.11657208
O 1.0850157 -1.1763159 0.5007018
C -0.81012756 -0.03704907 1.0514055
C 0.6968982 1.1261511 -2.1025126
H -1.2104887 -0.6496681 0.01711195
H -1.3960166 0.8906241 0.9765304
H 0.85705286 1.6910222 -2.9949374
H 0.6545399 -1.3590724 1.4270177
