10

O 0.13340808 -1.9056258 0.97540396
C -0.007211758 -0.6909483 0.39064693
C 0.2156569 0.5448059 0.9690582
N -0.45669985 0.7072577 -1.3463398
N 0.0028777642 1.3736125 -0.24159396
C -0.44984877 -0.546655 -0.95117754
H 1.1014842 1.2450771 0.123941205
H 0.42491737 -1.748722 1.8824927
H -0.74080145 -1.3367007 -1.633289
H -0.22378258 2.3578985 -0.16914266
