11

N 0.36926793 -1.95251382 0.98212623
C 0.00860540 -0.88742143 0.41018644
C 0.97926258 0.24241996 0.05958254
N 0.04874150 1.26567429 -0.39321722
C -1.18277205 0.67650844 -0.46651405
N -1.29605966 -0.52087588 0.00202505
H -2.01965148 1.23034782 -0.88029239
H -0.44299553 -2.55062772 1.12087931
H 1.55617062 0.55969068 0.93217120
H 1.66672989 -0.06281928 -0.73703872
H 0.31270085 1.99961687 -1.02990834
