10

O -0.49075318 -1.03700476 -0.93324085
C 0.08354296 -0.80597251 0.36414030
C -0.08164723 0.70424054 0.57604275
O -1.34262547 1.22360506 0.57630731
C 0.78721763 -0.44231099 -0.84420527
O 0.66046548 0.93987609 -0.67071885
H 1.60755468 -0.85240234 -1.42049709
H 0.13116872 -1.62830290 1.06745104
H -1.82387601 0.77252882 -0.13329207
H 0.46895186 1.12574307 1.41801266
