10

O -0.12686571 -1.1809297 -1.083131
C -0.06476676 -0.4789667 0.114683054
C -1.3110737 0.37400302 0.33319372
O -1.4837784 1.0062752 1.344122
C 1.143029 0.4436014 0.14559986
O 1.9276156 0.45358264 -0.7720609
H 0.6696798 -0.93261546 -1.5806369
H 0.024578702 -1.1530126 0.9817288
H -2.0206256 0.37818778 -0.5183044
H 1.2422065 1.0898745 1.0348057
