11

C 0.91952765 0.32045957 -0.65039784
O -0.35838395 0.6950922 -1.1263934
C -1.1541612 0.28025687 -0.018032271
C -0.13623247 -0.7096546 0.5572756
O 0.32153893 -0.6588508 1.7914099
H 1.5137725 1.1932654 -0.32490414
H -2.1051605 -0.15283605 -0.34343007
H -1.325059 1.0973629 0.69496655
H -0.13153504 -1.676566 0.019901838
H 0.9680352 -0.10109262 0.7580076
H 1.4876579 -0.28743684 -1.3584037
