13

N -0.7716737 -1.1922895 0.99090254
C 0.14098354 0.7815387 0.0010462084
C -0.9948251 -0.18765551 -0.07672453
N 0.33989072 2.7507813 -1.6416354
C 0.22698092 1.8494077 -0.9126331
N 1.3973325 -0.055382185 -0.049910434
H -1.4200323 -1.9670193 0.90045017
H 1.7116917 -0.34859854 -0.98080355
H 2.176802 0.40175667 0.41201356
H -1.0403605 -0.76110166 -1.0283749
H 1.1130251 -0.8916793 0.49399835
H -1.9407245 0.36241418 0.0068560992
H -0.93909013 -0.7421727 1.884815
