11

N 0.10199646 0.71428776 -1.7201575
C -0.005458563 0.1698647 -0.4363244
C 0.8889051 -0.50257784 0.36888504
C 0.12954685 -0.86082894 1.5066751
N -1.1181273 -0.44461223 1.4319881
N -1.181678 0.1820105 0.23402473
H 1.0478797 0.6337832 -2.0719092
H -0.18740317 1.68318 -1.7708123
H 1.9316375 -0.69934887 0.16716306
H 0.4620779 -1.4020867 2.3828487
H -2.0693765 0.52632827 -0.092380896
