11

N 0.1994211 -0.26432645 1.1486201
C 0.73112684 1.640134 0.37558654
C -0.12742399 -0.24604681 -0.14673238
C 0.18126212 0.95808864 -0.7354863
N -0.6892385 -1.5746131 -0.30112904
N 0.73855984 0.9035039 1.4966254
H 1.1251897 2.648269 0.3989383
H -1.6828071 -1.6135297 -0.5176061
H -0.35432318 -1.5508089 0.94326293
H -0.17516437 -2.2053776 -0.9114649
H 0.053397458 1.3047067 -1.7506146
