11

N -0.033815064 0.9698824 1.021731
C 1.3987442 -0.66364664 1.0874928
C -0.18737581 0.18351035 -0.03802373
C 0.67939794 -0.8922585 -0.09441037
N 0.9684831 0.43559554 1.7310413
N -1.2593222 0.6247233 -0.9514994
H -0.9181461 0.8642784 -1.884671
H -2.012522 -0.06086481 -1.0405098
H -1.6265479 1.4728519 -0.50276756
H 2.2103214 -1.2524241 1.496868
H 0.78078216 -1.6816477 -0.8252514
