10

O 0.9902272 0.50581086 -1.7980489
C 0.38053474 0.18298168 -0.6577378
C 1.1471983 -0.27968892 0.43325073
N 0.5665993 -0.60522693 1.5663936
N -0.7601357 -0.4949048 1.6837367
C -1.4259968 -0.05469626 0.6290267
N -0.9211824 0.29803687 -0.56199014
H 0.3011295 0.7999167 -2.416362
H 2.2247367 -0.3813944 0.37474337
H -2.503111 0.02916513 0.7469879
