10

O 1.5299884 -0.6516435 1.297713
C 0.3980014 -0.19325025 0.76866674
C -0.04212458 0.22138798 -1.5485104
N -1.1698842 0.71421075 -0.07493806
N 0.29928502 0.7930733 -0.28560978
C -0.91930336 -0.26194534 0.9778675
N -1.3045232 0.113499336 -1.3935989
H 2.2520475 -0.069452085 1.0211928
H 0.5982822 0.04119153 -2.4035068
H -1.641769 -0.7070717 1.640724
