11

C -0.19693278 0.035927624 -0.23578462
C -0.48285973 -0.6182252 1.0334322
O -1.7145839 -0.9295587 1.1838089
C 1.1218215 0.42862928 -0.7987248
O -1.291774 0.28378764 -0.8716
H 1.9112947 0.3366569 -0.048970763
H -0.18047564 0.59281933 1.2409899
H 1.0870748 1.4494368 -1.1880428
H 1.346686 -0.2460171 -1.6319875
H 0.34964237 -1.120346 1.5494728
H -1.9498931 -0.21311048 -0.23259373
