11

O -1.64902164 -0.98788083 -0.18573801
C -0.54223921 0.91390021 0.73895297
C 0.65821149 -0.68183139 -0.72591714
O 0.68871393 1.57474671 0.88628950
C -0.44894794 -0.32008480 -0.11844898
N 1.72778767 -1.13210849 -1.15610593
H -0.98208999 0.62364549 1.70704066
H -1.22993139 1.62747661 0.27258544
H 1.31055593 0.95007271 1.28138534
H -1.53689621 -1.82750318 -0.64458793
H 2.00385734 -0.74043315 -2.05545574
