11

O -1.8731338 -0.08669551 -0.09962784
C -0.6246531 0.49783415 0.084873214
C 0.27320036 0.074358374 1.2649354
O 1.367297 -0.18757026 0.33695713
C 0.5401533 0.00039282627 -0.74183816
N 0.69812304 -0.26218325 -1.957444
H -1.7466133 -0.9447652 -0.5243217
H -0.7485939 1.5824832 0.023568938
H 0.54788965 0.8397001 1.993214
H -0.050303064 -0.8479618 1.755356
H 1.6166338 -0.66559273 -2.1356728
