11

O -0.4732814 0.105661705 -1.4875317
C 0.6071678 0.16394737 0.2889382
C -0.7890415 0.39669338 0.40420553
O 1.4564329 0.16510262 1.3642058
C 0.58510953 -0.70994556 -0.9583621
N -1.8220477 0.659217 0.96705246
H 0.19962996 0.9718336 -0.81725025
H 1.5007937 -0.6772081 -1.5557297
H 1.1165112 -0.44020694 2.0374248
H -2.6303883 1.112056 0.580087
H 0.24911395 -1.7471509 -0.8230402
