9

N 1.6135426 -1.1348099 -0.6077086
C -0.06676992 0.52675825 -0.11792942
C -1.1497183 -0.46292624 -0.2466842
C -0.87878835 -0.07393767 0.9620872
N 1.3276242 0.013836282 -0.36207464
H -1.036005 -0.1347832 2.0242684
H 2.0415063 0.769464 -0.30453923
H -1.7042996 -1.0777715 -0.9310658
H -0.14709187 1.5741699 -0.41635358
