9

N -0.9748894 -0.5040339 0.7103259
C 0.5049503 0.6391513 -0.88405836
C 1.0553811 0.69575226 0.27988222
C -0.2812654 -0.55413866 -0.5039085
N -0.5648991 0.059156362 1.7306228
H 0.6005889 1.113155 -1.8563753
H -1.9250252 -0.892844 0.67257833
H 1.8862804 0.92421114 0.9204582
H -0.30112168 -1.4804094 -1.0695251
