9

N 0.60869195 -1.08333793 -0.59139545
C 0.43513296 0.31864203 -0.07047294
C -0.94247185 0.83923801 -0.06657552
C -0.44221200 0.55228297 1.09671306
N -0.28890367 -1.80620233 -0.95644692
H -1.75972554 1.17296366 -0.67870042
H 1.32265567 0.91850032 -0.28273040
H 1.60794334 -1.37468827 -0.61426171
H -0.54111054 0.46260158 2.16387026
