11

O 1.3664355 1.2010522 -0.4205887
C 0.69549966 0.21557908 0.30968386
C -0.7942517 0.5254516 0.58492833
N -1.1139985 -0.7139059 -0.12696783
C 0.16572002 -0.9723927 -0.5261002
O 0.667741 -1.7705256 -1.2772462
H 1.9774207 0.7505643 -1.0181645
H 1.2527415 -0.095783696 1.2031802
H -1.0985545 0.5285285 1.6329557
H -1.1255956 1.4345359 0.07761785
H -1.9931581 -1.1031038 -0.43929863
