11

O -1.1978183 -0.7634525 0.22843751
C 0.9242978 0.22276881 0.19954224
C 0.17931561 -1.1093525 0.35323384
N -0.036691923 0.93622154 -0.6112266
C -1.3066373 0.43924123 -0.40482762
O -2.3526187 0.9334456 -0.7179516
H 0.44101062 -1.8063555 -0.44870073
H 0.33533615 -1.5873072 1.3215618
H 1.091469 0.7086212 1.1690235
H 0.037538745 1.9266385 -0.7816969
H 1.8847983 0.09953083 -0.3073954
