11

O 1.281769 -0.33587545 0.30126098
C -0.79897463 -0.6948552 0.06644875
C 0.5247366 -1.4413599 0.04021176
N -0.002490588 1.6337245 -0.4411811
C 0.078965634 0.51304513 0.4221131
O 0.89343506 -2.5602791 -0.13055861
H 0.70290977 2.328218 -0.21674317
H -1.2836758 -0.6298177 -0.91053134
H -1.5141563 -1.0276303 0.8216251
H 0.111047655 1.3698654 -1.413067
H 0.0064336 0.8449647 1.4604216
