11

C 0.65477436 1.05759359 -0.84476235
C 0.30268001 0.07521843 0.08778735
C 1.17233409 -0.44005108 1.18895823
O -0.91107289 -0.44869983 -0.02048226
C -1.84309019 -0.18545571 -0.85762155
N 0.90001868 1.87310304 -1.64621507
H -2.75068431 -0.75659637 -0.71759540
H -1.69633138 0.56458547 -1.62536104
H 2.08773796 -0.90336237 0.80192171
H 0.61678075 -1.19414754 1.75293931
H 1.46685272 0.35781248 1.88043077
