11

C 0.5625652 -1.1654534 -0.92911494
C -0.6078474 0.55083007 1.6624925
C -0.08331732 1.3055086 -0.77942634
O -0.97417253 -0.32180056 0.7348101
C -0.14505467 -0.015772715 -0.30188596
N -0.0037117195 2.3632445 -1.2591709
H -1.4017203 0.99055016 2.255033
H 0.44115502 0.6979216 1.8766935
H -0.10670968 -2.034219 -0.930521
H 0.8507093 -0.925184 -1.9553934
H 1.4681041 -1.4456252 -0.3735165
