11

C -0.63630784 -0.6974702 -1.8098446
C -1.1034287 -0.42760837 0.9276062
C 0.04334711 0.08421695 0.30985186
O 0.1540103 -0.10021097 -0.99902123
C 1.1495819 0.8241206 0.9904144
N -2.0779316 -0.8735312 1.395606
H -0.30035588 -0.71500087 -2.8376408
H 1.9066755 1.0875752 0.24692492
H 1.6277257 0.21518695 1.7663268
H 0.79227215 1.7476138 1.4614865
H -1.5555886 -1.144892 -1.4517099
