9

O 0.11143187 -2.05555183 -1.05446707
C 1.05713458 0.50816222 -0.30364122
C -0.68720447 -1.19716224 -0.79133559
O -0.53421972 1.12387759 1.61086193
C 0.09719545 0.72897290 0.52274852
N -0.37421722 0.17859322 -0.71565837
H 2.01140799 0.51592868 -0.79291801
H -1.77176444 -1.38110163 -0.67085277
H 0.09023600 1.57828098 2.19526240
