9

O -0.95549643 1.791512 -0.14449601
C 1.0027076 0.31398162 0.6032855
C -0.3165704 -1.468724 -0.52372926
O -0.08241624 -2.2888105 0.32274628
C -0.006558742 0.9000054 0.06373191
N 0.400499 -0.26071078 -0.6750788
H 1.8651392 0.10283837 1.2047172
H -1.0578601 -1.6129774 -1.3326178
H -0.8494438 2.5228853 0.48144108
