9

O 1.0075257 -0.94699895 -1.5006132
C 0.31144926 -0.34896678 -0.5197121
C -0.9405387 -0.6236194 -0.07910247
O -1.1979915 0.26638892 0.939443
C -0.091198735 1.0062613 1.0383811
N 0.84484327 0.6947078 0.20215099
H 1.8645899 -0.5010879 -1.5453713
H -1.7158947 -1.3263872 -0.3282364
H -0.08278446 1.7797021 1.7930602
