11

N 0.5978846 -0.49809104 1.4525355
C -0.72095406 0.0771692 -0.4665414
O -0.46301454 1.4336398 -0.124883816
C 0.2261142 0.8860135 -1.2423866
C -0.20490983 -0.98482877 0.47185245
O -0.4814345 -2.1570399 0.3028568
H 0.6153908 0.49460164 1.6243136
H -1.708308 -0.12809046 -0.87481505
H 1.2939359 0.7334109 -1.0938537
H 0.9190918 -1.13769 2.1631308
H -0.073796555 1.2809049 -2.2122085
