11

N -0.071006715 -1.6409599 0.13192068
C 0.20502281 -0.5756836 0.9295942
O 0.7921032 -0.6254033 1.9919062
C -0.24970776 0.7444839 0.3594397
C 0.25538903 1.1947136 -0.9422244
O -1.0717033 0.70320386 -0.80060846
H -0.7300997 -1.528196 -0.6218082
H 0.13218033 -2.563151 0.48636818
H -0.52581936 1.4826745 1.1093291
H 0.3356041 2.2626731 -1.1442139
H 0.92803746 0.54564476 -1.4997036
