11

N 0.03201143 -0.46284430 1.58119269
C 0.16471935 -1.03855715 0.35886905
O 0.66958163 -2.12325636 0.14058928
C -0.34340647 -0.17784823 -0.77060546
C 0.25333340 1.14188592 -1.00577875
O -1.03829483 1.01379550 -0.42363202
H -0.75267070 -0.73663316 -1.60962209
H 0.27936147 -1.00946329 2.39189128
H -0.56312157 0.34405025 1.68114683
H 0.26953360 1.55168463 -2.01485891
H 1.02895278 1.49718611 -0.32919239
