11

C -0.43819532 -1.3809569 -0.56761456
C -0.51429915 0.014169303 0.037772715
C 0.8418801 0.6447696 0.22542116
O 1.8964334 0.14430588 -0.05957026
C 0.8115391 2.0096283 0.8181532
N 0.77832055 3.06819 1.2775187
H 0.050521284 -1.359528 -1.5455754
H -1.4451232 -1.7875239 -0.6904087
H 0.13393286 -2.0570607 0.074135095
H -1.0100137 0.0067955055 1.017185
H -1.1049957 0.6972104 -0.58701706
