10

N 1.28816000 0.20471689 1.02084551
C 0.18173053 0.10781265 0.21193837
O -0.56477889 1.22560205 -0.34816732
N 0.07788460 -0.60855921 -1.08360989
C -1.20552942 -0.01582365 -0.65375518
O -1.05691762 -0.46720809 0.70078977
H 1.20174431 0.91860335 1.73497076
H 2.14764327 0.30611383 0.49654003
H 0.10153713 -1.62028991 -0.92027265
H -2.17147378 -0.05096804 -1.15927914
