10

N 1.4779117 0.5006707 0.923607
C 0.22560121 0.6243263 0.37590346
O -0.44761902 1.6294922 0.43710658
N -0.22971694 -0.5469975 -0.23634315
C -1.4585716 -0.6433247 -0.8696929
O -1.858307 -1.6697553 -1.3569102
H 1.8796934 1.3744409 1.2269808
H 2.1279335 -0.16746925 0.5390712
H 0.29175758 -1.4088938 -0.16490883
H -2.0086827 0.30751032 -0.8748137
