11

N 0.9034801 0.7830782 -1.0216736
C -0.48017925 -0.72664106 0.28326488
O 1.4423993 -1.4333994 -0.90238297
C -0.49449503 -0.111686364 1.637602
C 0.7083735 -0.5050913 -0.62607116
O -1.4294648 0.36399862 0.20534429
H 0.26805195 0.6817968 1.6718659
H 1.6676097 0.96070844 -1.6557343
H -1.8356233 0.2394066 1.2064693
H 0.16389778 1.4604492 -0.93531185
H -0.9140499 -1.7126198 0.1366274
