11

N 0.77591941 0.86526057 -1.08560801
C -0.60772935 -0.57626355 0.30084630
O 0.69675375 -1.01125450 0.81606659
C -0.59907988 -0.09324716 1.71215843
C -0.46583819 0.36128821 -0.87661205
O -1.45206018 0.66318879 -1.52202693
H -1.26826413 -1.40312893 0.03925489
H 0.57137441 -1.84307240 1.29327756
H -0.10055308 0.89622392 1.65217566
H 0.88679985 1.57340090 -1.79471298
H 1.56267737 0.56760406 -0.53481971
