11

N 0.06052133 1.2381996 -0.9962281
C 0.04438199 -0.85545653 0.24113795
O -0.80843705 -0.64101523 -1.9494597
C -0.7761083 -0.713942 1.478858
C -0.2553738 -0.08058042 -1.0218973
O 0.91024953 -0.10024944 1.1556219
H -1.2805594 0.26637363 1.3535972
H -0.22042511 1.8081311 -1.7790654
H 0.43596804 -1.840812 -0.012195002
H 1.3542842 -0.7295605 1.7405767
H 0.5354987 1.6489117 -0.21094643
