10

N 1.4786993 0.5001281 0.9210996
C 0.22411594 0.6234794 0.37482885
O -0.44637522 1.6310474 0.4369593
N -0.23171867 -0.54824746 -0.23344104
C -1.4591886 -0.6399989 -0.86971766
O -1.8579117 -1.6702961 -1.3548787
H 1.8810722 1.3718902 1.2289187
H 2.1274776 -0.16967647 0.5366447
H 0.28822422 -1.4121077 -0.16394082
H -2.004395 0.3137813 -0.87647283
