10

N 0.57105184 0.93359643 0.89422065
C -0.22841199 0.108556464 0.36695382
O 0.06434179 -0.5367399 -0.80894774
N -1.4545861 -0.33727613 0.79244614
C 1.2929075 -0.34702283 -1.3739175
O 1.5717343 -0.88321626 -2.4014533
H 1.942765 0.314371 -0.7872406
H 0.21128404 1.3123596 1.7629486
H -2.0228155 -0.80325663 0.10106132
H -1.948271 0.23862825 1.4539287
