9

O -0.41534046 -0.40684890 -1.20879059
C -1.40262388 -0.12629326 -0.18390111
N 0.55300540 0.25472108 0.70306336
C 0.77482320 -0.19765149 -0.71588990
C -0.95378478 0.28053442 1.00366901
O 1.84692246 -0.31930070 -1.22844814
H -2.40239889 -0.28881921 -0.55976597
H 0.96503890 1.17997877 0.84305094
H 1.03435819 -0.37632087 1.34701258
