9

O 0.26957288 -1.599972 -1.6623898
C -0.89818615 0.18828487 0.98163646
N 0.7236364 0.3746013 -0.4694487
C 0.0364347 -0.8403131 -0.7700797
C 0.008741408 1.1340228 0.6834966
O -0.93962 -0.9285811 0.14432621
H 1.1720161 0.88127035 -1.2222172
H 1.2631127 0.627758 0.5435262
H -1.635708 0.16292872 1.7711498
