9

O -0.17962025 0.7305099 -1.1105406
C 0.5338026 -1.3037262 -0.10540035
N 0.008665083 -0.26012996 0.8928903
C 0.37377048 -0.6049553 -1.2294097
C -0.40733373 0.98161805 0.14973535
O -0.8497981 1.9638233 0.665884
H 0.7300652 -0.028004004 1.5786632
H 0.57385546 -0.8465385 -2.2632582
H -0.7834068 -0.6325973 1.4214356
