11

N 0.299167 0.30431947 1.9980553
C 0.11571088 0.104809545 0.76332295
C -0.63486457 0.84670585 -0.3415658
N -0.42778847 0.084932536 -1.5756987
C 0.29058513 -0.9153228 -1.2469609
N 0.64658314 -0.99391854 0.08821987
H -0.17149158 1.1566249 2.300023
H -1.7051997 0.9152628 -0.11568388
H -0.26050526 1.8704172 -0.4612257
H 0.6246112 -1.6832607 -1.9385066
H 1.2231922 -1.6905704 0.53002024
