11

N 0.2813831 -0.82952106 0.7197641
C -0.9098062 1.1153079 1.8154207
C 0.9373673 -0.76758254 -0.58444333
C -0.03124502 -0.41007695 -1.6987052
C -0.28838646 0.13436143 1.2089305
O 0.093831986 -0.8063069 -2.827228
H -1.9745814 1.2659098 1.6666069
H 1.7278817 -0.004175805 -0.5726729
H 1.3913697 -1.736619 -0.8113549
H -0.36768255 1.7707896 2.4874794
H -0.86013216 0.26791346 -1.403797
