11

N 0.97140804 -0.55404149 0.18640386
C -0.41320647 0.32331839 -1.66717262
C 0.90157132 0.40818398 -0.91102662
C -0.62936726 -0.60830135 2.14505884
C 0.17216883 -0.54738354 1.11061322
O -0.51053268 0.56714838 -2.84074864
H -0.39427873 -0.05883315 3.04951187
H 0.99625226 1.43147038 -0.52146037
H -1.29359410 0.03954881 -1.05228386
H -1.52214409 -1.22510027 2.11217526
H 1.72172292 0.22398989 -1.61107133
