11

N -1.836195 0.37685692 -0.36552408
C -1.3693699 -0.38231972 0.4121921
C -0.05375327 0.71931577 -1.0077729
C -0.15540284 -0.9356107 0.919418
C 0.78877115 0.28050125 0.15818302
O 1.8677827 -0.05515281 -0.4383707
H 0.06923969 -1.9140424 0.48953414
H -0.08170444 0.0017965067 -1.8218004
H -0.039036255 1.7680146 -1.3011763
H -0.013851584 -0.9121307 1.9979285
H 0.8235198 1.0527712 0.9573886
