13

N -0.072861515 0.19562057 -3.209512
C -0.034887727 -0.03847543 -2.0667455
C 0.0763168 -0.3470877 -0.70527816
N -0.5506173 -0.399485 1.5936121
C -0.9825563 0.073684685 0.26624307
N 1.3736068 0.19757423 -0.15692614
H -0.61782885 -1.4124316 1.6132014
H -1.1419332 -0.027467187 2.3269713
H 2.175796 -0.32047755 -0.5068473
H -1.1050994 1.1732634 0.3632629
H -1.9483864 -0.3242003 -0.06715194
H 1.273791 0.03262229 0.8596153
H 1.55466 1.1968596 -0.3104442
