13

N -0.60563135 -0.8653082 -1.4389461
C 0.43866527 -0.04260276 -0.83990115
C -0.080298856 0.5501465 0.47960755
N -0.5260937 -0.5318206 1.3472869
C 0.9883945 1.3212268 1.1372739
N 1.8217297 1.942693 1.640627
H -0.5169127 -0.87952685 -2.4496183
H -0.51531404 -1.8258916 -1.1281493
H 0.6882202 0.7833991 -1.51518
H 1.3622359 -0.6006439 -0.6275949
H -0.8850532 1.2599986 0.23430754
H -1.3480973 -0.9396991 0.91327375
H -0.8218445 -0.17197062 2.247013
