13

N -2.05177442 0.28592413 -2.24176527
C -1.42680202 0.04684049 -1.29849175
C -0.59868672 -0.29460456 -0.11965294
N 0.12347223 -1.54545871 -0.26656926
C 0.37963365 0.85054098 0.17866775
N 1.19486553 0.47840342 1.31565521
H 0.71620822 -1.50647735 -1.08965215
H -0.52469411 -2.31328860 -0.39952681
H 1.03303206 0.97606039 -0.69358586
H 1.97811566 1.10885254 1.41706036
H -0.19240310 1.78531763 0.29289965
H -1.27651290 -0.39994603 0.73619134
H 0.64554556 0.52783584 2.16876939
