12

N 2.1987417 0.118843906 0.16245817
C 0.8617164 0.19530001 -0.026900955
N 0.24043852 1.34576 -0.24859802
C -0.84883296 0.70073843 -0.72324735
C -1.8081326 0.20614743 0.250265
C -1.1073502 -0.908128 0.5605838
N 0.1644358 -1.0039513 -0.023762763
H 2.580061 -0.813689 0.18430872
H -1.4510643 -1.750153 1.1592183
H 2.7736535 0.8730455 -0.17428057
H -2.7084749 0.64749163 0.6537495
H -0.8951921 0.38859418 -1.7737938
