12

N -0.7474286 0.12875631 -0.51682305
C -0.7167432 -1.2529646 1.0619378
N 1.1585969 1.6755124 -0.8461337
C -0.16138595 -1.2531701 -0.33951023
C -1.1637253 -0.007994881 0.87814
C 0.6590893 0.43625185 -0.62035096
N 1.2137382 -0.7225456 -0.52566695
H -0.4844444 -2.0159137 -1.0522255
H -1.6936098 0.74806935 1.4451077
H 0.56350315 2.4637504 -0.6593879
H 2.1453357 1.7870663 -0.67794836
H -0.77292603 -1.9868176 1.8528612
