11

N 1.40301594 -0.11391892 0.75155063
C 0.14001114 -0.09364675 0.13761325
C 1.13694508 -1.01254610 -0.41027906
O -1.04553399 -0.36404497 0.82096067
C -1.60664395 0.72698949 0.10451887
O -0.37120448 1.02101032 -0.54770528
H -2.38591095 0.41528356 -0.59668370
H 1.13553835 -2.06791221 -0.15597309
H 1.57212629 -0.75220941 -1.37320845
H -1.93897958 1.54106964 0.75149227
H 1.96063602 0.69992519 0.51771354
