11

N 1.5835309 1.0035741 0.04313243
C 0.44312173 0.33116287 0.067445755
C -0.46780893 -1.4636059 -0.21106283
O 0.22616364 -0.79452395 0.8541039
C -0.539217 1.3693768 0.073960476
O -0.30064434 -0.47421512 -1.1816323
H -0.43263426 2.1614943 -0.65758294
H 2.2851937 0.5026068 0.5882712
H -1.3189129 1.4188778 0.83418614
H 0.038894493 -2.4038177 -0.45970145
H -1.5176867 -1.6509298 0.048879374
