11

N -0.62605494 -0.71221817 -1.9424125
C -0.32427722 -0.27706796 -0.79978395
C 0.70635206 -0.875169 0.13370872
O 0.44268703 -0.24313366 1.3712955
C -0.1301753 0.9897345 1.0505611
O -0.8458137 0.8094024 -0.17100821
H -1.3294377 -0.12774166 -2.3854535
H 0.58439934 -1.9539222 0.24040724
H 1.7190175 -0.6511598 -0.23032473
H -0.8292533 1.2763904 1.8369758
H 0.6325561 1.764885 0.8960342
