9

O -2.45122383 1.05320762 0.69080794
C -1.56170088 0.25220808 0.72711334
C -0.49752275 0.20418706 -0.37654610
N 1.51473185 -0.90840919 -1.27552187
C 1.83832820 -0.34541468 -0.22181827
N 0.49724633 -0.76835499 -0.04717158
O -0.53613597 0.85143536 -1.38212155
H -1.42655440 -0.48216082 1.54427050
H 2.62283114 0.14330148 0.34098749
