10

O 1.96417098 -1.31984316 0.06561784
C -1.64811043 1.96413441 -0.30386981
C -0.20647496 -0.12575900 0.44594876
O -0.38618754 -1.36240077 -0.27040940
C -0.99852945 1.00829798 0.02284720
C 0.84125317 -0.70152643 -0.40751553
H -0.12631085 -0.25324789 1.52788474
H 1.03690436 -0.25923703 -1.38101580
H -2.23220764 2.80782750 -0.60200548
H 1.75549240 -1.75824594 0.90251726
