11

O -1.82080437 0.31948840 1.24762520
C -0.77054791 -0.42436931 0.72718954
N 0.49592270 0.30519384 0.74867456
C 0.88751981 0.27071220 -0.46125300
O 2.01803139 0.76527717 -0.95586493
C -0.09880305 -0.41324138 -1.34150600
N -1.10182893 -0.78946118 -0.65275465
H -1.49122161 0.73020850 2.05720163
H 2.50618634 1.18207116 -0.23030446
H -0.00026849 -0.57339967 -2.41036769
H -0.62418553 -1.37247973 1.27135922
