11

N 0.89686422 0.43473550 1.83059617
C 0.22648362 0.13286527 0.72920535
C -1.14904317 -0.30245560 0.69786704
C -1.26537714 -0.44298965 -0.64927795
C -0.02266888 -0.11852524 -1.43649257
O 0.91151600 0.25801097 -0.40427687
H 1.86405736 0.72158945 1.80830888
H 0.41309897 0.31822098 2.70817820
H -2.15857990 -0.76333767 -1.18180493
H -0.12375370 0.72903840 -2.12301424
H 0.40740260 -0.96715250 -1.97928917
