9

N 0.7932177 -0.026414413 -1.3411986
C 0.039135467 -0.70107347 -0.41399917
O -0.8853116 0.08925826 0.24462388
C -0.42056453 1.1602892 0.96465486
O 0.7255689 1.4061815 1.1733924
C 1.4345528 0.5640955 -2.1410666
N 0.12669949 -1.9435368 -0.267186
H -0.51713395 -2.2636333 0.4537891
H -1.2961642 1.7148331 1.32699
