10

N -0.5648083 1.1666651 -1.2845143
C -0.15423484 0.24947947 -0.3246921
C 0.68692267 -0.8104389 -0.39507023
O 0.6907008 -1.4131548 0.8442588
C -0.14994289 -0.6763766 1.573741
N -0.6831247 0.32248262 0.9546139
H 0.14680937 1.4178648 -1.9559882
H -0.9740124 1.9864862 -0.8597405
H 1.303487 -1.2644067 -1.153918
H -0.3017967 -0.9786012 2.6013095
