11

N 0.94865966 1.1473284 1.1201861
C 0.119429424 0.3249935 0.35669968
C -1.2028798 0.1278374 0.311511
O -1.5102007 -0.7338256 -0.7340331
C -0.34822127 -1.093363 -1.3573014
O -0.27743393 -1.8087208 -2.319039
N 0.6638453 -0.4715417 -0.65423936
H 1.615409 0.62525535 1.6788576
H 0.42095262 1.7655175 1.7204381
H -2.0247188 0.4985245 0.9016639
H 1.5951583 -0.38200518 -1.0247436
