12

N -0.46040900 -1.41461360 1.27274250
C -0.07843288 -0.43133397 0.38114687
C -0.57408422 1.54633631 -0.76168865
N 0.02854830 1.09359033 0.47065436
C 0.26043901 -0.35675831 -1.09400694
N -0.47117882 0.73282160 -1.72960188
C 1.13068034 0.20308956 0.00932780
H -1.46352835 -1.46646021 1.40703200
H 0.02109304 -1.36356950 2.15995213
H -1.07214687 2.51063822 -0.79170393
H 0.51590859 -1.24701923 -1.65917333
H 2.16311083 0.19327889 0.33531931
