12

N -0.028397337 0.6512771 -1.8236204
C 0.5709375 0.8534063 0.5152654
C 0.0679727 -0.45894963 0.34959778
N -0.89657253 0.7288115 0.28855124
C -1.0385664 0.97482437 -1.1278278
N 0.08607726 -1.636797 1.0707324
C 0.8654779 0.14528657 -0.7885404
H -1.9651031 1.3937602 -1.5084431
H -0.027381983 -1.50202 2.0659976
H 1.0829351 1.4138261 1.2873195
H -0.56529677 -2.3304684 0.722161
H 1.8479174 -0.23295733 -1.0511931
