9

O -1.1179413 0.3634487 -1.0519068
C 0.075911954 -0.09188238 -0.5117182
C 0.48599556 0.74213105 0.7035669
O -0.23065673 1.6259907 1.0961024
C -0.003683928 -1.5049015 -0.064799905
N -0.053452898 -2.593036 0.31658497
H -1.4800183 0.99723935 -0.40935376
H 0.87749815 -0.02637901 -1.2609252
H 1.4463474 0.48738924 1.1824496
