9

O 0.451027 -1.0752879 -0.9364146
C -0.9967837 -0.119469605 0.20213857
C 0.46640435 -0.44078508 0.25792155
O -1.4466083 0.3844711 -0.87855047
C 1.3106573 0.79325134 0.36935464
N 1.9545609 1.7507167 0.40998203
H -0.6737739 0.17046604 -1.5099292
H 0.68274885 -1.0650059 1.1437144
H -1.7482324 -0.3983564 0.941783
