11

N -1.1721168 -0.978928 1.1351135
C 0.4259212 -0.94097805 -0.6819317
N -0.47739142 -1.5221634 0.2868203
N -0.6258288 1.8095894 0.363129
C 0.21831636 0.8494315 0.17908011
C 1.2341229 0.18352765 -0.3043114
H 0.5347213 -1.525904 -1.5916122
H -1.457148 1.6051322 0.9056312
H -0.5475407 2.7026076 -0.11188405
H -0.43056226 -2.5580592 0.23272386
H 2.297506 0.3757444 -0.4127585
