10

N -1.82749396 -1.08636858 -0.22984057
C -0.75226089 -0.44391266 -0.11948213
O 0.00916994 0.15716844 -1.04007426
C 1.14120078 0.74976056 -0.35242961
C 1.01162819 0.45151185 1.11720543
N -0.10676288 -0.23371717 1.14076309
H -2.13889092 -1.13029957 -1.19574403
H -0.53082720 -0.61585766 1.97746078
H 1.13357266 1.82837161 -0.53571004
H 2.06066417 0.32334342 -0.76214858
