10

N 0.08018069 -2.0775483 -0.69989365
C 1.0730033 0.07078311 0.44447753
O 0.14730504 1.0945892 0.781392
C 0.33439574 -1.0002989 -0.26766512
C -1.0166168 0.9979013 0.06159319
N -1.3338928 0.08608741 -0.7293911
H 1.8402433 0.47026676 -0.23055826
H 1.537727 -0.30511665 1.3592954
H -1.6445265 1.8610634 0.28220898
H -1.0178189 -1.1977274 -1.0014588
