10

N -1.318132 -0.6401425 -1.1596973
C -1.2087653 -0.74758536 0.09305594
O -0.18068177 -0.21714868 0.772817
C 0.76696736 0.47548833 -0.03201526
C 1.81969 0.97915196 0.8528257
N 2.6749086 1.3954954 1.5095857
H -2.1599128 -1.1055914 -1.4900053
H -1.8801789 -1.2525574 0.79177123
H 0.2878782 1.3080053 -0.55703694
H 1.1982265 -0.19511542 -0.7813007
