9

N -0.06306078 -0.89680195 -1.523087
C 0.07408397 1.1630468 1.2056562
N 0.029877307 0.5782782 -0.039250236
C -0.04576092 -0.741675 -0.23566635
O 0.1400822 2.3491564 1.4228197
H -0.078690864 -1.5062819 0.5396053
H 0.017935159 0.43329018 -1.4135941
H -0.11670667 -1.7924562 -1.9845918
H 0.042240612 0.41344327 2.0281084
