9

N -0.6634424 1.614418 -0.100071624
C 0.73209786 -1.5800383 0.40601128
N 0.33785883 -0.2838366 0.7306273
C -0.21574773 0.3569694 -0.24421601
O 1.269387 -2.335645 1.1786197
H -1.0680089 2.1208105 -0.8693519
H -0.5500612 2.0779202 0.7865486
H 0.51830757 -1.9001806 -0.64398766
H -0.36039123 -0.07041748 -1.2441797
