11

C -0.25321624 -1.17401 -0.511761
C 0.94081223 1.0784082 0.35508266
C -0.50497365 -0.18596542 0.62530965
O 0.14564383 -0.16259152 -1.4867926
C -0.09198102 0.875441 -0.57737637
N 1.7078546 1.1450666 1.2674611
H -1.1214012 -1.719782 -0.8996043
H 0.8256386 0.3464858 1.5655812
H 0.5657101 -1.8854786 -0.34222627
H -1.5430186 -0.043163847 0.9362446
H -0.6710686 1.7255896 -0.93191844
