11

C -0.43725118 -1.3801398 -0.5678971
C -0.51465684 0.015231693 0.038929462
C 0.8423035 0.6475126 0.22601217
O 1.896303 0.14458531 -0.05918412
C 0.81189346 2.008213 0.8169967
N 0.77783245 3.0667527 1.2766232
H 0.049346477 -1.3569336 -1.5471458
H -1.4435022 -1.7906334 -0.6896917
H 0.13768336 -2.0556076 0.072204895
H -1.0104653 0.004375246 1.0181808
H -1.1094869 0.6966439 -0.5850285
