11

O 0.7199331 0.9032208 1.5398217
C -0.6976379 0.6164509 -0.50841415
C 0.3133687 -1.1501493 -0.23479329
N -0.3665939 -0.44044608 -1.325645
C -0.39118367 -0.16294739 0.72644943
O -1.0076438 1.7693702 -0.7086272
H -0.31494123 -0.50980335 -2.3308887
H 0.021603765 -2.1964386 -0.11389124
H -0.083334245 0.463238 2.0314806
H 1.402436 -1.0510479 -0.25968432
H 0.40399316 1.7585529 1.1841922
