11

O -1.98627104 -0.01866461 -0.61028566
C -0.79448293 -0.30584240 -0.52666727
C 0.36673755 0.53335348 -0.43011996
N -0.10853222 -1.47101336 -0.15885652
C 1.03379382 -0.65127625 0.30147464
O -0.26972069 1.70617495 0.48809892
H 1.05985526 -0.60457614 1.39612974
H -0.01245398 -2.30641692 -0.71822920
H 2.01300999 -0.93987934 -0.08331547
H -1.24962103 1.53143236 0.31797516
H -0.05231465 2.52670812 0.02379591
