12

N 1.1505361 -0.13878366 1.4817214
C -1.2202028 0.26162142 -1.4175506
O 1.5278183 1.449292 -0.10197759
N -0.34509322 0.13417448 -0.30129915
C -1.3054464 -0.91707397 -0.4587853
C 0.7201969 0.45995462 0.33332044
H -0.67853445 -0.0012345979 -2.3382933
H -2.1184125 -0.94213974 0.26726374
H 0.482082 -0.78548 1.8824987
H 1.55536 0.4990715 2.1510096
H 1.0731506 1.8720076 -0.8469686
H -0.84145457 -1.8914094 -0.6509393
