12

N -0.2911385 -0.83463097 1.7661272
C 0.0989222 0.29270062 1.0860211
O 0.849964 1.1322628 1.5355097
N -0.49718693 0.37516743 -0.18577391
C 0.2708519 0.9356746 -1.272264
C -0.0702115 -0.51182073 -1.2574408
H -1.1421522 -1.2897983 1.4769149
H -0.10523036 -0.82056975 2.75758
H -0.27509382 1.6127139 -1.9244431
H 1.2973714 1.215466 -1.0515056
H -0.8680625 -0.8945933 -1.8903803
H 0.7319664 -1.2125723 -1.0403455
