12

N -0.45795858 -0.45540655 1.9129796
C -0.1405397 -0.1331816 0.5976996
C -0.92677003 0.7234708 -0.17452917
N -0.59581614 1.0818852 -1.4134809
C 0.53798485 0.5796626 -1.8940151
N 1.367161 -0.24686645 -1.2550054
C 1.0232478 -0.59670216 -0.021476146
H -1.4323708 -0.38014287 2.1604097
H -0.03438615 -1.3014076 2.2638202
H -1.8541718 1.1325486 0.22334972
H 0.817213 0.86962956 -2.903293
H 1.6964066 -1.2734898 0.503541
