10

O -1.9217119 -0.09681125 0.96993625
C 1.0969349 -1.2249368 -0.26937836
C 1.1546965 0.26169917 -0.6255531
N -0.09191032 -1.405315 0.35409302
C -0.73513687 -0.23268938 0.41369206
N -0.11123302 0.80504394 -0.12068605
H -2.170876 -0.9804134 1.284594
H -0.4727766 1.7429684 -0.15416624
H 1.2402658 0.3905503 -1.7092556
H 2.0117471 0.739904 -0.14327618
