10

O 0.2143535 2.2123678 0.39537308
C 0.11856287 0.88376033 0.16400845
C -1.0027689 0.19494554 -0.21214552
N -0.5704485 -1.1190124 -0.31251037
C 0.74373925 -1.1405909 -0.0011130022
N 1.1946142 0.059182573 0.29363096
H 1.1306093 2.3744683 0.6558341
H -2.0192919 0.4930081 -0.40924326
H -1.1383998 -1.9085164 -0.5718789
H 1.32903 -2.049613 -0.0019554382
