17

C -1.97261939 -0.79295230 1.28578918
N -0.62672525 -0.26986378 1.26417515
C -0.10367675 -0.06920119 0.12271745
O -0.78427074 -0.32996052 -1.02334176
N 1.19218287 0.38276458 -0.03061912
C 1.92152349 0.80309508 1.14985997
C -0.18818711 -0.15968155 -2.29483076
H -2.68440698 -0.15650284 0.74336994
H -2.29318754 -0.85158353 2.32974754
H -2.03255174 -1.80253646 0.85618350
H -0.93486093 -0.49857078 -3.01311220
H 1.92165723 -0.01478360 1.87210167
H 1.48006839 1.68159182 1.63521517
H 2.95208510 1.02357295 0.86028560
H 0.04346879 0.89414311 -2.49936991
H 1.38800869 0.92320468 -0.85652113
H 0.72149173 -0.76273541 -2.40165027
