17

C 1.4811772 1.028102 -1.1309736
N 0.9853611 -0.101296365 -0.38679498
C 1.2177675 -2.1089036 0.07956983
O -0.50938374 -1.3015034 0.633243
N -1.0997192 0.8659172 0.15117726
C -0.20728326 -0.16855286 0.13735761
C -2.3247836 0.78007656 0.92234886
H 2.375862 0.72373307 -1.6874002
H 1.8115038 -1.9182982 0.96411926
H 0.5857428 -2.9903553 0.15187888
H -2.1643639 0.9418594 1.9961
H 0.7527572 1.4004594 -1.8673527
H -0.7016442 1.7818198 0.024419881
H 1.7813084 1.8684223 -0.4850995
H 1.7965643 -2.10732 -0.8400214
H -3.03353 1.5230889 0.55191714
H -2.7473364 -0.21724936 0.7855106
