11

O 1.4472959 0.111214764 0.79353946
C -1.1678323 0.24569696 0.6171989
O 0.29440507 1.5526603 -1.9644176
C -0.17301711 1.0135205 -1.0144699
C 0.24784695 0.0656832 0.09019617
C 1.1602069 -1.0688956 0.044136453
O -1.4592865 1.0703782 -0.5455966
H -1.8023071 -0.64195 0.64414006
H 0.9282941 -1.9501063 0.63863176
H 1.7734392 -1.2219623 -0.8419162
H -1.249045 0.8237602 1.5385574
