11

O 0.01042088 0.87943179 -2.36280681
C -1.26201167 -0.14839454 0.43639370
O -1.63073770 0.08033987 -0.95244025
C 1.46396334 -0.35916771 0.46730681
C 0.17520466 0.19418127 0.07399116
C -0.37096427 0.48436386 -1.30923073
O 1.08261046 0.98092217 0.77619922
H 1.50383792 -1.03701275 1.31741071
H -1.46447341 -1.17785778 0.73708606
H -1.75609125 0.56579094 1.09630169
H 2.24824077 -0.46259708 -0.28021165
