11

O 0.46182472 0.97650415 -1.2984676
C -0.6031388 0.86771923 -0.37560007
C 0.34492004 -1.4620417 -0.032094534
C -0.34725815 -0.3013709 0.5615093
O 1.0403216 -0.27906194 1.0365314
H 0.5442345 0.089686565 -1.683154
H -1.0122435 -0.3422693 1.4283457
H 0.26292256 -2.2973022 0.68710935
H 1.5259998 0.23132841 0.35680118
H -0.64178336 1.8142418 0.17563953
H -1.5757996 0.70256615 -0.8566203
