11

O 0.45586988 -1.5459615 0.5570085
C 0.63751924 0.7389142 -1.272485
C 0.1251904 -0.2830726 1.0811362
C -0.12699698 0.74543947 -0.008820462
O -1.0344985 0.16555525 -0.9787414
H 0.97324616 0.04817272 1.691035
H -0.25846332 -1.7921898 -0.0469403
H -0.48606116 1.7009737 0.38128483
H -0.71399 0.7679916 -1.8128742
H 1.1866007 -0.21067199 -1.3292304
H -0.7584164 -0.33515105 1.7386272
