11

O 0.20554141 1.33484699 -1.01429616
C -0.62196973 0.93142921 0.05815214
C -0.22513985 -0.46451146 0.51014362
C 0.24239725 -1.37609272 -0.55242945
O 1.23351145 -0.56698548 0.62571483
H -1.68735182 0.90637147 -0.20463704
H -0.47704386 1.66255144 0.86171934
H -0.67317000 -0.77980513 1.45626329
H 1.57796209 0.13489379 0.03653400
H 0.14506579 0.61015960 -1.65647317
H 0.28019750 -2.39285772 -0.12069112
