12

O -0.32302535 -1.0621191 -1.4813998
C 0.29873636 0.6406531 0.25064716
C -0.06999777 -0.28117412 1.4096302
O -0.88350713 1.2416217 -0.2304078
C 1.0188607 -0.057400633 -0.8698622
O -1.2056744 -0.3855523 1.8103086
H 0.31893063 -0.4605196 -2.0881119
H -1.0502667 -0.43156335 -1.284024
H 1.0121199 1.3911937 0.63925374
H 0.7638269 -0.8447693 1.8626858
H 1.6663767 -0.8558326 -0.4884345
H -1.5463799 1.1054624 0.46971458
