12

C -0.9939696 2.1162045 -0.49737135
N 0.49785545 -1.2089577 -0.1401276
C 0.18936068 0.1149004 0.13825059
N -0.41726434 0.85238785 -0.7248668
C 0.96847826 -2.1034422 0.78069943
O 1.2387826 -3.2568254 0.53196764
H -1.5547677 0.8551098 -0.90136427
H 1.0761554 -1.6518601 1.7854908
H -1.1119661 2.6803992 -1.4158618
H 0.36990863 -1.5513701 -1.0848033
H 0.48781744 0.49391007 1.1131326
H -0.7503907 2.659544 0.41485432
