11

C -0.40790597 0.91687536 -1.1533086
C -0.07177185 -0.33325195 -0.37940136
O -0.052677996 -1.4382908 -0.87776136
C 0.27542838 -0.18468267 1.0920205
O 0.64934313 -1.4013487 1.6545221
H 0.51944345 1.3379968 -1.5606529
H -0.866324 1.680691 -0.51605433
H -1.0682431 0.67605615 -1.9885718
H -0.6060762 0.24102451 1.6016221
H 1.0816641 0.56126446 1.1843048
H 0.5471201 -2.0563343 0.9432807
