13

C 0.5855721 -1.584095 -1.165058
N 0.23048395 -0.6412932 -0.12708801
C -0.052785892 0.66146886 -0.38057092
O -0.07591643 1.1700733 -1.4866929
C -0.3372997 1.4760371 0.877235
O -0.5652582 0.6949509 2.0383325
H -0.1104065 -2.4295247 -1.1808895
H 0.5357137 -1.0574704 -2.1189208
H 1.6038871 -1.9629371 -1.0206019
H 0.26814795 -0.9120923 0.84421575
H -1.1694762 2.1542583 0.654196
H 0.5468046 2.0912123 1.0816208
H -1.4594665 0.3394123 1.9842222
