11

O -1.3528124 0.53413814 0.99191636
C 0.73215204 -0.116714366 1.6514062
C -0.4489829 -0.295212 0.9405083
N -0.036612917 1.0290023 -0.7877158
C -0.2670657 -0.32084486 -1.2500591
O -0.38697147 -1.1733664 -0.110831425
H 0.030592777 1.5849924 -1.6616333
H -1.1727949 -0.39649343 -1.8755947
H 0.5794948 -0.700964 -1.8412908
H 1.5495812 -0.8232598 1.558669
H 0.77341974 0.678722 2.3846247
