11

O 0.406127 -0.7499005 -0.54308045
C -0.103333004 0.5135064 -0.52681726
C -0.22684638 1.3234365 -1.5699596
N -0.036250554 -0.19264616 1.626862
C 0.085857995 -1.316984 0.7159987
O -0.483729 0.84647584 0.7359023
H 0.9087906 0.10587239 1.8863521
H -0.86857617 -1.8440442 0.64605737
H 0.88343894 -1.9944775 1.0169554
H -0.6000233 2.3306181 -1.4270386
H 0.034543976 0.97814333 -2.561232
