11

N 1.8489432 -0.11151489 -1.4341332
C 0.5978234 -0.13600697 -0.86833805
N -0.5445302 -0.24364428 -1.445785
N -1.5006285 -0.06700753 -0.43598667
C -0.83997047 0.09345568 0.65337133
N -1.3002017 0.19881855 1.9420934
O 0.51034254 0.07315042 0.47602153
H 2.5472188 -0.64863783 -0.9372234
H 1.8062584 -0.35246497 -2.414765
H -0.82055604 0.88848716 2.5032082
H -2.3046994 0.30536464 1.9615372
