12

N 0.79139466 -1.09027745 1.12764232
C -0.30066472 -0.71589976 1.71431595
C -1.06883520 0.73925720 -0.09417211
N -1.18329790 0.14823939 1.11819197
C 0.17060687 0.33854406 -0.70566791
N 0.45555100 0.93283879 -1.92020736
C 1.02580575 -0.55646155 -0.09965766
H -2.01909001 0.36271436 1.64354792
H -0.55283990 -1.08773064 2.70128703
H -0.34384190 1.36479695 -2.35635206
H 1.07726573 0.44942047 -2.54993555
H 1.94794563 -0.88544187 -0.57899238
