12

N 0.5644242 0.85279834 -1.617995
C -0.07435409 -0.19822693 0.34730095
C -0.31454068 -1.6657641 0.4583969
N 1.39199 -0.0590245 0.35135454
C 1.652069 0.5116351 -0.76418155
N -0.7331041 0.4007348 1.4983791
C -0.45807302 0.46878114 -0.942999
H -1.6603245 0.7429195 1.2765762
H -0.75360715 -2.082249 -0.46485734
H -0.7975485 -0.2889691 2.2480352
H 2.6628091 0.7405061 -1.0884668
H -1.4797403 0.5768583 -1.3015432
