12

N -0.9385427 0.6081073 1.1924199
C -0.1496791 1.2579334 0.30492303
C 0.2987496 -1.0571154 -0.4063425
N 1.4270569 0.821988 -1.4327441
C 0.5234772 0.2972192 -0.5285058
N -0.53146285 -1.5889423 0.5285803
C -1.1208131 -0.74572855 1.3150885
H 1.3163145 1.8118668 -1.5867413
H -1.7891138 -1.092557 2.0955029
H -1.4594667 1.1870103 1.835892
H 0.78335005 -1.7817731 -1.0608388
H 1.6401302 0.28199148 -2.257234
