12

N -0.992884 -0.82759583 1.6331607
C 1.6477896 0.44331577 -0.5060143
C 0.26990774 0.03659317 -0.025231522
N -0.46858183 -1.0447614 -0.6008576
C -0.17658602 0.14100225 1.3588023
N 0.397921 1.2211843 -0.93338764
C -1.1353986 -1.5028031 0.4020594
H -1.7904011 -2.3642757 0.3336329
H 0.26232055 2.141107 -0.538136
H -0.07012816 1.0762386 -1.822776
H 0.18721671 0.85275465 2.092248
H 1.8688244 -0.17276 -1.3935001
