10

N -0.61626610 0.76111176 -0.77406870
C -0.43901055 -0.20990812 1.14872870
C -1.65888947 1.26095300 -0.06542382
O -1.53262510 0.63342251 1.12578593
C 0.15453429 -0.15431400 -0.05427095
N 1.21792606 -0.83327705 -0.65333732
H 1.65191293 -1.49120014 -0.01863661
H -0.23689361 -0.75224659 2.05745814
H -0.46386289 0.99364942 -1.74332596
H 1.92317466 -0.20819083 -1.02290910
