10

N -0.45534816 0.7310857 -0.90066165
C -0.13160896 -0.287632 0.0025153295
C 0.37700936 1.7931184 -0.6584104
O 1.1999171 1.4397395 0.36219665
C 0.93127406 0.14240958 0.7159508
N -0.88379663 -1.450327 0.03539466
H -0.9047494 1.857659 -0.5704265
H 1.5798473 -0.3167316 1.4482167
H -0.40787297 -2.251707 0.42415988
H -1.304672 -1.6576142 -0.8589355
