10

N -1.0485109 0.26354784 0.36306766
C -0.66073054 -0.9671813 -0.09885447
C 0.6672045 -0.88710016 -0.4398428
C 1.0945948 0.44430724 -0.17275713
C 0.012431424 1.1304276 0.32206455
H -1.9739016 0.49754116 0.6823927
H -1.3592657 -1.7903486 -0.14281638
H 1.2724764 -1.6906056 -0.8353129
H 2.0872543 0.8443018 -0.32665688
H -0.091553226 2.1551101 0.64871556
