10

O 1.2293108 -1.7083468 0.11585
C -0.6910638 -0.19991025 0.119123116
C 0.539197 -0.81722075 0.54764754
O -0.45445123 -0.20963931 -1.4733653
C -0.09891476 1.0211369 0.83042735
O 0.8258972 0.1209151 1.5217222
H -1.282814 -0.552416 -1.8366531
H -0.74949646 1.5469606 1.5303986
H 0.4618591 1.7256702 0.20850892
H 0.22047623 -0.9271496 -1.5636594
