10

O -0.41538537 -0.28114256 1.6277156
C -0.73631686 -0.25333184 -0.8811848
C -0.19712165 0.6125612 0.1970433
O 0.415222 -0.23637821 -1.6236714
C 1.137617 0.3146613 -0.47359717
O -1.7464564 -0.86159724 -1.0740263
H -0.6981056 0.74517965 1.5611036
H 1.7249482 1.1870892 -0.7613022
H 1.7499076 -0.45238584 0.0022839594
H -1.2343088 -0.7746555 1.4256356
