10

O -0.12454528 -1.1807408 -1.0810695
C -0.06488223 -0.48133516 0.11657926
C -1.3103079 0.37489915 0.333463
O -1.4854993 1.0074006 1.342678
C 1.1429565 0.44109058 0.14369595
O 1.929113 0.45346817 -0.77355343
H 0.67081213 -0.9277016 -1.5797957
H 0.022802917 -1.1531341 0.9862063
H -2.019742 0.37488773 -0.5178215
H 1.2392918 1.0911654 1.0296174
