10

O 0.5079806 -0.3803247 -2.028469
C 0.25640363 0.37597385 0.20566784
C -0.70356095 -0.3127535 1.1705589
O 1.5602318 -0.06897025 0.3750465
C -0.23160942 0.10876923 -1.2090513
O -1.8654165 -0.0068370965 1.2492974
H -1.281476 0.3740684 -1.4221063
H 1.8384904 -0.42768374 -0.4846512
H -0.24277823 -1.1237491 1.7694069
H 0.16173495 1.4615068 0.3743001
