10

O -1.2808014 -1.2472336 -0.16459996
C 0.40484026 0.39991042 -0.26727414
C -0.34387898 -0.7254513 -0.86769897
O 1.9020686 0.46184748 1.5737568
C 0.769208 0.30984616 1.1951258
O -0.89685196 0.9297296 -0.5676204
H -0.06580843 0.07314707 1.888051
H -0.13253297 -1.0572249 -1.8871623
H -1.5398088 -0.022729298 -0.041035496
H 1.1835656 0.87815833 -0.8615424
