12

O 1.1751232 -1.9711528 -0.7604868
C 0.30855456 0.16348933 -0.023446457
C 1.5620974 -0.661336 -0.7599515
N 1.1382321 0.6576798 0.7472977
N -1.221901 1.4044758 1.4645152
C -1.7156501 0.709783 0.517088
N -0.9139225 -0.009973719 -0.38731813
H -1.928109 1.8460761 2.0392811
H 2.538649 -0.5811152 -0.28700244
H 0.282194 -2.0099406 -1.1333271
H 1.5589435 -0.15469559 -1.7323672
H -2.7842112 0.60671 0.3157175
