12

O -1.1667323 1.0624889 -2.8594048
C -0.20302524 0.7450007 -1.9102389
C -0.26495862 -0.6817304 0.056919854
N 0.8538975 0.05255068 2.505874
N -0.77513033 -0.021561025 -0.8119314
C 0.5797449 -1.1405463 2.1707299
N 0.11731465 -1.4926704 0.904218
H -1.8241258 1.6343279 -2.4432986
H 0.27281472 1.6385268 -1.4811491
H 0.6789432 -2.014484 2.8247716
H 0.5504237 0.14528501 -2.4296691
H 1.1808337 0.07281217 3.4731796
