12

O 0.40055962 1.97236571 -2.57209423
C 0.75057591 1.31028328 -1.40180306
C -0.18022319 -0.64551838 -0.29837032
N -0.22626891 0.28479382 -1.06217676
N -0.21464539 -1.70316172 0.33556687
C -0.52653202 -1.79248613 1.69079135
N -0.59929677 -0.78346306 2.45730251
H -0.43447007 2.43295085 -2.42077612
H 0.83109202 1.99189265 -0.54281736
H 1.72393337 0.84833270 -1.59240439
H -0.69182812 -2.83026459 2.00235359
H -0.83289619 -1.08572484 3.40442819
