11

O -0.11352475 -0.8042474 -1.5152599
C 0.062439695 0.8413519 0.3489656
C -0.754306 -0.1315609 1.1010592
C 0.28564578 0.48366204 -1.0905643
O 0.6066868 -0.5769594 1.2903507
H 0.416241 -1.4354981 -1.0095942
H -1.2998275 -0.885479 0.53740466
H -0.31876153 1.2073207 -1.6544135
H -1.2463484 0.180852 2.0234098
H 1.3367438 0.6811189 -1.3496896
H 1.0250111 0.43943933 1.3183312
