11

O -1.0780817 -0.5626238 -1.0148269
C -1.1142706 0.5680383 -0.0971688
C 1.2420982 0.028187202 0.33972773
C 0.2982113 0.82701385 -0.48138565
O 0.75948876 -0.8930474 1.3053681
H 0.32411525 -1.6020684 0.813622
H 1.981471 -0.4478502 -0.32549796
H -1.8468057 1.3212136 -0.39706397
H 1.7955477 0.8133948 0.8832476
H -1.3260834 0.15373078 0.8892374
H -1.0356909 -0.20598876 -1.9152595
