12

N -0.92270046 0.41055110 -0.62457229
C -0.43122464 0.83824512 0.46591871
N 1.01817729 -0.73299635 -0.19356818
C 0.80538085 0.12542454 0.95005046
O -0.91052454 1.83984052 1.19219810
C -0.09464015 -0.68302843 -1.02395621
N -0.29572235 -1.50368207 -1.96996309
H -1.70280618 2.17452125 0.74369105
H 0.59491261 -0.41138283 1.88421671
H 1.62408008 0.83118106 1.12666437
H 1.47514321 -1.62378423 -0.10304542
H -1.16007565 -1.26488945 -2.44763432
