10

C -0.9336111 0.3795056 2.367396
C -0.4743641 0.21131909 1.2679541
C 0.067273065 0.008245943 -0.03440672
C 1.3405602 0.11764979 -0.5492022
N 1.3052315 -0.20028234 -1.8691628
N 0.09052458 -0.4993223 -2.2037144
N -0.6659151 -0.37787098 -1.109789
H -1.3320874 0.5308563 3.3483644
H 2.2565012 0.40006956 -0.05405875
H -1.6541129 -0.5701707 -1.1633815
