10

C -0.053125024 0.0015871988 0.107938156
C 1.1429261 -0.6053613 -0.26779345
C -2.51038 -0.76447284 -0.41466
C -1.39307 -0.40645245 -0.16728806
N 2.1647995 0.14872837 0.13580887
N 0.25408548 1.0838739 0.84317666
N 1.6719787 1.1445886 0.8412537
H -3.5085628 -1.0789894 -0.6239313
H 0.9378913 2.0078862 0.3505126
H 1.2934561 -1.5313878 -0.80501705
