10

C -0.08957465 -0.115636446 -0.06436087
C -2.467321 -0.8882181 -0.8672175
C -1.3762112 -0.55107975 -0.5044767
C 0.27719897 1.1133289 0.5102604
N 1.0012654 -0.88393563 -0.15411879
N 1.578775 1.0847191 0.7664119
N 1.937764 -0.11607675 0.35059932
H -3.434305 -1.1983074 -1.1949468
H -0.32269865 1.9801741 0.7378897
H 2.8951063 -0.42496789 0.4199594
