10

C -2.70555376 -0.40091986 0.38459355
C -1.53820030 -0.24187977 0.16606234
C -0.14270964 -0.04056549 -0.05938122
C 0.85118340 0.35108822 0.85377392
N 1.68602067 0.06847478 -1.02174801
N 0.42648852 -0.21367202 -1.25701210
N 2.01058760 0.41156417 0.21139021
H 0.77671600 0.58252190 1.90449078
H 2.38249211 0.02741126 -1.74973850
H -3.74702467 -0.54402324 0.56756815
