10

O 1.31357067 -1.49435980 -0.12067850
C 0.61301713 -0.95597631 -0.93775899
C 0.00137927 0.85317270 1.45559118
O 0.78034603 1.60979183 0.94366583
C -0.57935040 -0.08771429 -0.59844384
O -0.78888076 -0.01774101 0.80100054
H -0.20900898 0.77806162 2.53171252
H 0.78998394 -1.06637297 -2.02841093
H -1.48613259 -0.53072936 -1.02318736
H -0.43492440 0.91186748 -1.02349043
