13

C -0.35869334 -0.42259282 0.46644279
C -0.10852211 0.31641277 -0.76875657
O -1.01075510 0.84210327 0.19729639
C 0.59101873 -0.44851700 1.63164335
O 1.01645314 1.07138198 -0.99151178
N -0.57247190 -0.15141872 -2.01661169
H 1.34031061 0.34485941 1.55997275
H -1.36603944 -0.76787246 -1.91608019
H 1.11525564 -1.40970048 1.65603015
H -0.83265156 0.62856977 -2.61139369
H -1.04336556 -1.27186129 0.41597842
H 1.17994625 1.59033464 -0.19567111
H 0.04951441 -0.32169912 2.57266103
