13

C -0.53719497 1.4341834 0.45364445
C 0.48644733 0.5973637 -0.3040064
O 1.2458874 -1.5865539 -0.8237318
C 0.4093143 -0.88206184 -0.12605008
O 0.24696092 0.43112275 -1.6465361
N -0.49426553 -1.5195807 0.59824383
H -1.178736 -1.0082135 1.129322
H 1.3404543 -0.8893999 -1.5659567
H -0.38868013 1.4041764 1.5407908
H 1.5032098 0.94801456 -0.038543466
H -1.5519298 1.1064258 0.20671846
H -0.44057462 2.471814 0.1245525
H -0.6408933 -2.5072906 0.4515523
