13

C 0.20017993 -1.5204082 -0.6014545
C -0.20618239 -0.05638493 -0.58267945
O -1.5723515 0.12926114 -0.22827543
C 0.7354849 0.7686959 0.30339992
O 1.9414065 0.62035865 0.2632199
N 0.09758484 1.6570573 1.1080979
H 1.2488283 -1.6159446 -0.88943917
H -0.42638132 -2.074301 -1.3065403
H 0.08394735 -1.9674299 0.39489153
H -0.11546396 0.36141917 -1.5900522
H -1.7539092 -0.43593988 0.532924
H -0.88799316 1.8110279 0.97554046
H 0.65484947 2.3225884 1.6203672
