11

N 0.56396496 -1.4130657 -1.3654382
C 0.17773837 -0.439942 -0.44946012
C -1.0220516 0.10443823 -0.10749579
C -0.7126404 1.1318885 0.854127
C 0.62805605 1.1208911 1.0128869
O 1.1894977 0.15660524 0.2121362
H 1.4308496 -1.8642166 -1.1053953
H -0.16384764 -2.0952752 -1.5339497
H -1.9944617 -0.1731409 -0.48485327
H -1.4168936 1.7838676 1.3524507
H 1.3197882 1.6879498 1.6149917
