11

N 1.5071295 0.71838975 -0.6195115
C -0.72304666 -0.9942652 0.39731818
C -0.69731057 0.37572357 0.8759943
C -0.13231367 -0.99788636 -0.8300334
C 0.2658738 0.38007125 -0.9509373
O -0.6389611 1.1715883 -0.29142985
H -1.0015789 -1.8512918 0.9986232
H 0.9691653 0.5386869 0.69958425
H 0.27346897 -1.8238032 -1.395969
H -1.3910015 0.75071305 1.6261501
H 1.5685748 1.7320735 -0.50978905
