11

N -0.21895298 0.40998077 -1.1043408
C 0.5034244 0.32143852 0.022048315
C -1.2346447 -0.438225 -0.91059524
N -1.1647673 -1.1351587 0.3280048
C -0.082079634 -0.58408964 0.9173853
N 1.6181151 1.1072999 0.22155859
H -2.0480611 -0.24772002 0.08159287
H 2.3114173 0.7260493 0.84459174
H 2.011623 1.4605609 -0.6380385
H -1.8841076 -0.8002583 -1.7002151
H 0.18803346 -0.81987774 1.9380081
