11

N 1.0374573 0.13163315 1.7679038
C 0.3732441 0.057116985 0.5398481
C -0.9709135 0.124320045 0.2721903
N -1.0539865 0.063236035 -1.1109142
C 0.20776385 -0.02567907 -1.5854819
N 1.0957384 -0.039027374 -0.62004304
H 2.0099902 -0.12134556 1.6461741
H 0.6174408 -0.42928842 2.494241
H -1.8442622 0.2272456 0.8960676
H -1.89848 0.09276064 -1.65692
H 0.42600796 -0.08097196 -2.6430655
