11

N 0.58316471 0.25374328 1.58040497
C 1.07397704 0.20958666 0.40321864
C -0.83497066 -0.04013909 1.39874751
N -1.11876549 -0.24657663 -0.00417426
C 0.01603886 -0.10395130 -0.58977951
N 0.24480320 -0.27055144 -1.93198828
H 2.12729478 0.37533347 0.19374329
H -1.08762509 -0.92919114 1.98852270
H -1.42864608 0.79065787 1.79737146
H -0.58516719 -0.28970993 -2.50346548
H 1.00989632 0.25079832 -2.33260077
