10

O -2.03256934 -0.61714231 -0.09409030
C 0.41216300 -0.27985516 -0.77234119
C -0.79071679 -0.16855685 0.10710163
C 1.00869459 0.50266994 0.42809027
N -0.31685975 0.47490468 1.10813793
H -2.56188221 -0.37322823 0.67981237
H 0.79520294 -1.29086508 -0.92977614
H 1.34301461 1.51893756 0.20136165
H 1.78096717 -0.02547333 0.99366326
H 0.36198545 0.25860857 -1.72195957
