11

N 1.4420165 -0.80903983 -0.8247336
C 0.5109178 0.9327431 0.1842483
C 0.0008668446 -0.40738368 0.67087495
C -1.237901 -0.07433836 -0.12962937
C 1.6204695 0.40791425 -0.856767
O -0.66107094 1.2032301 -0.5461614
H 1.1136484 -1.6836727 -0.46354958
H -0.00572584 -0.7379803 1.7062756
H -2.144191 0.09785293 0.46037316
H -1.4821812 -0.70166224 -0.9966261
H 0.8431511 1.7723367 0.795695
