12

C 1.0719182 0.19364892 0.780926
C -0.3172642 0.5940407 0.35074425
N -1.0184609 1.5504242 0.8068569
N -0.9052536 -0.1741818 -0.6637232
C -0.39147687 -1.2487319 -1.3409157
O -0.9937266 -1.8386364 -2.2077448
H 1.4141934 0.8628675 1.5736456
H 1.7804778 0.25744995 -0.051939875
H 1.0907588 -0.83104885 1.1658618
H -0.5175237 2.0471187 1.5381027
H -1.8410797 0.11566352 -0.9277855
H 0.62743765 -1.528615 -1.0240283
