11

N 0.41917092 1.7223582 -1.360836
C 0.265028 -0.7080861 1.303058
C -0.44293946 -1.3373066 0.13395184
C 0.55881274 0.5640794 0.79632765
C 0.18423253 0.70915 -0.6467324
O -0.43196425 -0.435431 -1.0078069
H 0.08922674 -2.249182 -0.15522096
H -0.39619997 0.4193687 1.60112
H 0.09134205 1.5819228 -2.3159435
H 1.1450015 1.3300235 1.2955515
H -1.4817108 -1.5968968 0.35653034
