10

O 1.92661412 1.24493448 -0.59548548
C -0.99226509 0.10387505 0.62394396
N 0.71252446 -0.71012775 -0.73038497
C -0.55651072 -1.10661612 -0.15102168
C 0.87330091 0.48127734 -0.30889854
N -0.13211669 1.04834631 0.52619942
H -1.28164423 -1.37578194 -0.92811124
H -0.43907568 -1.98155754 0.49864931
H -1.90413818 0.20740075 1.20420907
H 1.79331116 2.08824914 -0.13910002
