11

C 0.94926153 1.09383926 -0.81268018
C 0.00930537 0.07828119 -0.26259524
C 0.30362264 -0.84214283 0.90275333
O -0.45727772 1.37873150 0.23789892
C -0.94009169 -0.50506277 -1.21582180
N -1.67998766 -0.96075453 -1.97520664
H -0.61468270 -1.19386465 1.38302635
H 0.91064565 -0.30465173 1.63615719
H -1.07696732 1.76913829 -0.40000512
H 0.86553084 -1.70807197 0.54462331
H 1.73064150 1.19455814 -0.03815003
