11

C -0.6756696 -0.9712537 -1.1032771
C 0.03210565 0.007831413 -0.272174
C 0.86486137 1.0048048 -1.0002064
O -0.69766223 1.2810657 -0.19681819
C 0.30863684 -0.5062096 1.1246555
N -1.2248671 -1.739581 -1.7664676
H 1.5088015 1.4486934 -0.219886
H -0.5986437 -0.8884443 1.6025611
H 0.7184162 0.30773842 1.7286624
H -1.2796304 1.3683232 -0.9695105
H 1.0436516 -1.3129687 1.072461
