11

C -1.1943007 0.977729 -0.11871812
C 0.31561807 -1.0412064 -0.78124774
C 0.0130630955 0.14664784 0.10492206
O -0.8548619 -0.1366987 1.2239213
C 1.2178593 0.81723875 0.61139417
N 2.1829946 1.3510786 0.95285934
H -1.7771449 -0.095089026 0.6660317
H -0.6271961 -1.4843986 -1.1110307
H 0.87566626 -0.71260375 -1.6612267
H -1.0574294 1.9620737 0.35211408
H 0.9057317 -1.7847714 -0.23901953
