10

N 0.22530104 1.7676159 0.3907406
C -0.2018709 0.47977304 0.16360551
N -1.4013518 0.0492577 0.35954225
O -1.3368835 -1.3398087 0.1040057
C -0.08069965 -1.6997854 -0.25860173
O 0.28413254 -2.8115718 -0.5193732
N 0.64467806 -0.5153932 -0.2517745
H 0.7497595 2.1765652 -0.37030897
H -0.5309066 2.3696268 0.6862963
H 1.6478415 -0.4762792 -0.30413198
