9

N 0.21050309 -0.8810025 -0.18904206
C -1.0330088 -1.2622229 -0.5086607
C 0.14889668 0.445906 0.1508506
N 1.328545 0.9952621 0.53972167
N -2.0616333 -0.5239622 -0.53280574
O -0.90063715 1.1019168 0.118826546
H -1.2227588 -2.3123248 -0.7792923
H 1.3593181 1.9816644 0.72389334
H 2.1707757 0.45476282 0.47650865
