9

N -0.8850784 -0.5760036 -1.2252924
C 0.23549761 -0.14710401 -0.5541213
C -0.051807676 0.37300566 0.78681976
N 0.9534432 0.8081449 1.4894077
N 1.8344163 1.1770871 2.0865097
O 1.3492221 -0.16369228 -1.0421591
H -0.70058864 -1.092562 -2.0724828
H -1.7046996 -0.8464881 -0.7061671
H -1.0304048 0.4676123 1.2374861
