9

N -0.06632421 -0.57710060 -1.77649423
C 1.08156430 -0.50598341 -1.17637017
C -0.20986253 0.16779831 0.27388356
N -0.82473515 0.69321209 1.36314339
N 1.06579846 -0.05350646 0.11540621
O -0.95905693 -0.11612155 -0.78604779
H 1.98906639 -0.79750052 -1.68919180
H -1.80840109 0.51059020 1.47291215
H -0.26804914 0.67861193 2.20275923
