11

N 1.1433477 -0.85945994 -0.30891183
C 1.1345772 -0.05984205 0.93356436
C -0.66442406 0.37160835 -0.19259937
N -1.8362657 1.1371468 -0.3394189
C -0.15473944 -0.5354902 -1.0648749
N 0.08942036 0.651736 0.99026096
H 1.9406179 -0.64033556 -0.9099042
H -2.4072974 1.1179898 0.4966931
H 1.9408329 -0.12170457 1.6555378
H 1.1828581 -1.8647864 -0.12964386
H -2.368927 0.80313766 -1.1307032
