11

N -0.5830286 -0.901615 1.0401058
C 0.81597227 -0.2520062 0.8389322
C 0.51031333 0.3891315 -0.35278878
N 1.4190595 1.061287 -1.1676242
C -1.4517932 -0.3969775 0.06800246
N -0.8165315 0.3520715 -0.7690832
H 0.23321114 -1.5882663 0.68371785
H 0.9945928 1.8333699 -1.6628019
H 2.252452 1.3394916 -0.6742964
H -2.4999793 -0.6619973 0.026086802
H -0.87426865 -1.174489 1.9697493
