11

N -0.18104424 -0.6968705 2.0602832
C 0.4758436 -0.45492098 -1.3109486
C -0.09271076 -0.17388423 0.7619458
N 0.37185216 -1.100733 -0.22944725
C -0.33019397 1.103224 0.3678119
N 0.08795826 0.95504284 -1.1057293
H -0.6156826 -1.609215 2.0763922
H 0.8569109 1.6016345 -1.2913814
H 0.79079807 -0.8195723 -2.2821639
H -0.6874445 1.2454756 -1.7041619
H -0.6762869 -0.050181266 2.6573994
