12

O -0.83644179 -2.38155523 1.09987929
C 0.52112672 1.53233623 -0.81163668
C -0.00919357 -0.30572923 0.33232214
N -0.44665148 0.86162497 -1.39918905
N -0.82639785 -0.26959470 -0.77163011
C -0.03357560 -1.30545853 1.24300004
N 0.78564950 0.86228456 0.35092792
H -0.92760295 1.12715705 -2.24436964
H 0.92969339 2.48297967 -1.11362589
H 1.65923183 0.92231051 0.85334132
H -1.34699214 -2.22399139 0.29020337
H 0.53115380 -1.30236394 2.17077718
