11

C -0.6529793 -1.0916176 0.16386321
C 0.7970887 0.7710544 -0.78022856
O -1.1230419 0.18436886 0.43187195
C 0.015397172 1.0563776 0.46489766
O 0.41404387 -1.025978 -0.7998644
H 0.16751513 -0.32487768 -1.5330037
H -0.19768159 -1.5649468 1.042759
H -0.3692968 2.0794756 0.42606053
H 0.5521066 0.8929493 1.4145551
H -1.4774828 -1.690497 -0.22798623
H 1.874331 0.71369135 -0.60292464
