11

C 0.25857269 0.07308377 -0.63384099
C -0.91190676 -0.70578439 -0.01257676
O 1.47949352 -0.56920408 -0.87465759
C 0.09911090 0.98057908 0.59751568
O -1.12833348 0.33135122 0.95474095
H -1.79803655 -0.88447429 -0.63183920
H -0.00865980 0.57039401 -1.56836901
H -0.60019809 -1.65222682 0.45703478
H 1.75658496 -1.02455553 -0.07084946
H 0.88561056 0.82474507 1.35305363
H -0.03223791 2.05609203 0.42978759
