11

C 0.25565317 0.060925104 -0.63630575
C -0.2771052 1.0328677 0.42986083
O -1.2287529 0.06119613 0.88367516
C -0.61417633 -0.97096664 0.0993729
O 1.6344935 -0.14770657 -0.7645482
H -0.108601734 0.28696987 -1.6404449
H -0.7569356 1.9576788 0.08839262
H 2.0015264 -0.3513391 0.10381391
H -1.347508 -1.537124 -0.48571903
H -0.027224611 -1.6680222 0.71828467
H 0.46863136 1.2755208 1.2036179
