11

O -0.9156383 0.024341665 -0.13695474
C -0.65925467 0.8349178 0.92526454
C 1.2641768 -1.0089018 -0.45096713
O 2.4143963 -0.9428799 -0.7979699
C 0.15558687 -0.1617703 -1.0463806
N -1.464586 1.0535517 1.8635029
H 0.91360986 -1.7303723 0.31674537
H -0.26920468 -0.7015451 -1.8988608
H 0.3258033 1.309956 0.903841
H 0.5654354 0.7882666 -1.4086324
H -2.330325 0.5344358 1.7304118
