11

O 2.49247156 0.03436958 -1.06840640
C 1.54706103 -0.43254277 -0.48878022
C -0.89345744 0.67699790 0.85511786
O -0.82513002 -0.41761680 0.04999298
C 0.12199201 -0.35365708 -1.00266340
N -1.62074094 0.76527617 1.87488068
H -0.00230600 0.54220745 -1.62213822
H 1.64992345 -0.99677956 0.46193294
H -2.14353081 -0.09519488 2.02646856
H -0.25870836 1.51017873 0.53989925
H -0.06757467 -1.23323883 -1.62630401
