9

O 0.09343690 -0.34582194 1.01829947
C -1.25639431 -0.78607968 -2.17764803
C -0.72925873 0.75375210 1.04450791
N 0.99479257 -0.48265860 -1.13982929
C 1.12337734 -0.38292169 0.12142441
N -0.24221200 -0.64919910 -1.60827106
O -0.60020381 1.73053500 0.37606987
H -1.49691812 0.57068740 1.80809526
H 2.11338056 -0.40829351 0.55735162
