11

N 0.013588443 -0.24493936 1.7302154
C -0.17339016 0.24115159 -0.53049594
C -0.6882302 0.35054785 0.8254434
N -0.77758896 0.9089602 -1.6171225
N 1.106627 -0.78409296 0.90723413
C 0.98393905 -0.48844403 -0.5579381
H 1.9848348 -0.4013072 1.2625638
H -0.2619661 0.68733907 -2.4615276
H 1.1467193 -1.7915244 1.0658202
H -1.7460599 0.6441306 -1.7505152
H -1.5884733 0.87817866 1.126322
