12

O -0.07725008 -1.0680263 -1.5332615
C 0.90583426 0.3702947 0.41606048
C -0.74854743 -0.05989987 -1.1047426
O 1.6044575 -0.6460534 0.041594326
C -0.42260057 0.06023901 1.1488504
O -1.3932668 -0.10487392 0.118622
H -0.30869472 -0.86156136 1.7251674
H 1.4533895 1.2765119 0.7107639
H -1.3268608 0.50028944 -1.8428451
H 0.24419157 0.81915814 -0.67671275
H -0.7452642 0.8792736 1.7987473
H 0.8146113 -1.165352 -0.80224377
