12

O 1.04342 1.0982757 -1.0103103
C 0.60084164 1.0153106 0.32007375
C -0.44819403 -0.08861822 0.44998428
O -1.4907787 0.18653513 -0.44663748
C 0.15677226 -1.4338139 0.110285595
O -0.32461545 -2.1384244 -0.74291414
H 0.23642164 1.1335857 -1.5470991
H 0.16116548 1.9590522 0.67107856
H 1.4717913 0.79110026 0.9450732
H -0.8060953 -0.13532677 1.4922824
H -1.6443553 -0.6392002 -0.9369619
H 1.0436264 -1.748476 0.6951451
