11

C -0.52901196 -1.1163625 -0.5132156
C 0.7581342 0.38396338 0.90041244
C -0.5316279 -0.05283183 0.46995917
C 0.78112656 1.6288798 1.409219
O -0.26392967 -2.202709 -0.024452168
N -0.88050675 -0.914442 -1.8177396
H -1.4170563 -0.086775176 -2.0303109
H 1.6699065 -0.18831731 0.7148236
H -1.1315533 -1.7501583 -2.3273594
H 1.7062052 2.1649232 1.605781
H -0.16168655 2.1338296 1.6128826
