10

C 1.62231485 0.62998259 1.65308737
C 0.83719827 0.55244053 0.75399116
C -0.14019776 0.43812822 -0.32487307
C -1.21315726 -0.58342591 -0.10664178
N -1.23630153 -1.43292142 -1.05178000
N -0.16778763 -1.05141541 -1.97244489
N 0.44786702 -0.05454362 -1.58480330
H -0.57687720 1.41977215 -0.54784018
H -1.90010147 -0.62029332 0.73008047
H 2.32704237 0.70227652 2.45122416
