10

C -1.8678247 -0.14490579 1.733273
C 0.99282086 -0.81953317 -0.50111914
C 0.04825395 0.11409116 -0.04924476
C -1.0006653 -0.015660197 0.9119602
N 1.530085 -0.3593821 -1.6251217
N 1.0019046 0.82693845 -1.9076414
N 0.058906548 1.1654277 -1.0515193
H 0.6106901 1.2554967 0.09414317
H 1.2753648 -1.7653422 -0.05852787
H -2.649536 -0.25713047 2.4537976
