10

C -1.0274023 0.04614068 -0.87511396
C 2.329478 -0.56909347 0.10557487
C 1.1490905 -0.43861586 0.24859847
C -0.2954164 -0.2784877 0.39029226
N -1.6849722 1.127688 -0.75969404
N -0.66733533 0.88210523 1.221358
N -1.4322667 1.6190099 0.5929461
H -1.0246587 -0.5426996 -1.7842978
H -0.7299716 -1.1613455 0.8758352
H 3.383454 -0.68470204 -0.015498957
