11

C -0.38143703 -0.37202522 -0.6416262
C -1.5772392 -0.76907176 0.052854527
N 0.5265357 -0.35468867 -1.4186454
C 1.1464561 1.1465671 0.4863471
C 1.5100354 0.10497227 -0.3457854
O -0.032105938 1.5333745 0.65233165
H -2.4376924 -0.4554817 -0.5458317
H -1.5965263 -1.8541832 0.19025922
H 2.4553142 -0.41210076 -0.42075476
H 1.9814503 1.661665 0.98747224
H -1.5947908 -0.2290277 1.0033787
