11

N 0.80395305 0.5727315 0.66094476
C -0.108827256 -0.010908598 -0.21198392
C -0.27008083 -1.349263 -0.12274421
C 0.78984845 -1.5443088 0.8383007
N -1.0839107 0.8529355 -0.9231899
N 1.4291604 -0.4572089 1.2739146
H 1.3473029 1.4143527 0.5226911
H -0.6910653 1.4203703 -1.6792021
H -1.6991465 0.13182448 -1.3222716
H -1.6315767 1.4577335 -0.3043216
H 1.1143426 -2.4882586 1.2678623
