11

N -1.3804809 -1.1184899 -0.8486992
C -1.6887361 -0.66801345 0.36972636
C -0.6714036 0.14777033 0.9749132
C 0.23440625 0.096174 -0.03126003
N -0.1523593 -0.6257551 -1.111196
N 1.4104304 0.87348807 0.3207179
H -2.6588986 -0.9521686 0.76299804
H 0.7528786 1.0427057 1.3003312
H 1.5783938 1.7211645 -0.21864177
H 0.3009956 -0.8677153 -1.9765295
H 2.274774 0.3508399 0.45763993
