11

N 0.1061034 0.71186024 -1.7189535
C -0.0059163775 0.16718994 -0.43681073
C 0.8887855 -0.50433487 0.36922148
C 0.12968114 -0.85839194 1.5076628
N -1.1184766 -0.44100112 1.4318745
N -1.182243 0.18218668 0.23386502
H 1.0508896 0.6333784 -2.071104
H -0.19112125 1.6790041 -1.7756231
H 1.9312145 -0.70176727 0.16722049
H 0.4606608 -1.3984392 2.3847795
H -2.069578 0.53031504 -0.09213151
