11

O 0.041742444 2.3553288 -0.54292965
C 1.2563782 0.27021322 -0.32302725
N -0.47292086 -0.98506796 0.48810735
C 0.10908637 1.1732118 -0.28063178
C -1.0772965 0.30436042 0.18662457
C 0.8348472 -0.95165044 0.08266043
H -1.8204317 0.23002286 -0.61518455
H -1.5515584 0.7466006 1.0665903
H 2.259518 0.55306613 -0.6071213
H -1.0047249 -1.8365958 0.39480057
H 1.4253604 -1.8594898 0.1501112
