11

O 0.20246796 1.0802352 -1.2266573
C -0.63275945 -0.23807894 -0.61126804
N -0.98900294 0.24459885 0.7093156
C 0.4181194 0.59298307 1.0420184
C 0.8221015 0.22832699 -0.40659487
C 0.7018489 -1.1624296 -0.6886092
H 0.5309137 1.6520501 1.2741058
H 0.752268 -1.3105105 -1.7781569
H -1.3425691 -0.5040755 -1.3781271
H 0.8675589 -0.04982799 1.7992651
H -1.3309468 -0.5332718 1.2647085
