9

N 1.2667456 -0.15517452 -1.56484
C 0.21980798 -0.021667978 -0.86337477
N 0.29350862 -0.03822986 0.5222416
C -0.78511626 0.090668194 1.366445
O -0.70932466 0.07520168 2.5702136
H 1.0442247 -0.12344356 -2.5538342
H -0.80067635 0.11340016 -1.2360092
H 1.2105863 -0.15337567 0.9387284
H -1.7397557 0.21262155 0.8204295
