10

C -1.33388374 -0.23094635 -1.11526302
O 0.63913006 0.26620006 0.38473164
C 1.71847182 0.60780833 1.17052605
O 2.35656536 1.58635147 0.94348079
C 0.01750668 -0.88631024 0.78699520
O -0.97982432 -1.10793732 -0.01664065
H -2.20268278 -0.70519907 -1.56767230
H -1.58332445 0.76218453 -0.73638732
H -0.50733098 -0.16676327 -1.82759267
H 1.87537242 -0.12538811 1.97782265
