10

C -1.6345489 -0.16044056 0.61555064
O 0.6731134 0.2597809 -0.32680312
C 0.57839495 -1.0255867 0.13727677
O 2.1467721 1.6458611 -1.2816309
C 1.9142764 0.56455314 -0.8423378
O -0.6237684 -1.199443 0.6000894
H -1.2948786 0.6836809 1.2190069
H -2.502683 -0.6375738 1.0662042
H -1.8531119 0.16781913 -0.4038601
H 2.5964336 -0.29865125 -0.783496
