10

C 0.052828297 -0.7096894 0.33034706
O 1.5447091 -2.0317943 -1.3758863
C 1.5216693 -1.4852096 -0.31955844
O -1.0954285 -0.13650769 0.5566062
C -1.2477733 1.2520094 0.17039734
O 0.99073356 0.00976664 -0.18433204
H 2.131867 -1.6408411 0.57287514
H -0.61220604 1.8890636 0.79025644
H -2.298959 1.4752666 0.34222883
H -0.9874403 1.3779362 -0.8829341
