10

O 0.86569704 -1.75699585 -2.07029788
C 0.99509729 -1.52407120 -0.89351109
C 0.29778431 -0.43261488 -0.18893946
N 0.40967528 -0.13745315 1.06792631
O -0.54259116 0.36274820 -0.87395196
C -1.00193602 1.24198611 0.04698563
C -0.42606204 0.94640448 1.23798513
H 1.65294913 -2.10583038 -0.22327514
H -1.70435485 1.98185620 -0.30024978
H -0.54625903 1.42397059 2.19732839
