10

N -0.31973207 -1.0016352 -1.5092833
C -0.07643329 -0.4412376 -0.26792806
N -0.036540642 -1.1734949 0.8171081
O 0.31283477 -0.30629486 1.8403974
C 0.45247805 0.9205023 1.3365135
C 0.22383992 0.9292329 0.0026831792
H -0.88070095 -0.4270064 -2.1209254
H -0.6733529 -1.9471567 -1.4520355
H 0.7232976 1.6915476 2.0436473
H 0.2743095 1.7555428 -0.6901772
