10

N -0.38703746 0.17878456 1.48666952
C -1.43015265 1.45540199 -0.19020417
N 1.18500320 -1.07697971 0.31829388
O -1.37361312 1.21138396 1.07513150
C 0.16414759 -0.17977253 0.38767478
C -0.39013701 0.54741750 -0.80369921
H -0.85426085 -0.11258177 -1.54420055
H 1.33675983 -1.55202670 -0.55464425
H 1.38007383 -1.61251607 1.15246541
H 0.36921664 1.14088872 -1.32748689
