11

N 1.45015249 -0.54026933 -0.11120116
C -0.35557073 0.22708335 -0.97627397
N 0.80919191 -0.20772088 -1.30783694
N -1.32579379 0.78098349 -1.77326837
C 0.59496210 -0.31104663 0.82327455
N 0.70156065 -0.57394623 2.16791349
O -0.58439749 0.18596915 0.36705421
H 1.63630495 -0.89139428 2.38593879
H -1.07727112 0.69449585 -2.74914360
H -2.26088614 0.44191778 -1.58625702
H 0.41174725 0.19392773 2.75980039
