9

C 0.7747235 0.11986464 -1.6542176
C 0.15193626 0.024816267 -0.33374298
C -0.34750056 -0.041232258 0.76108795
C -0.97191405 -0.15153508 2.0665793
O -0.6610755 0.5130912 3.0281708
H 0.8132392 1.1617875 -1.9847003
H 0.2181366 -0.4591448 -2.3961055
H 1.7995788 -0.2606706 -1.6164503
H -1.7771244 -0.9069769 2.129379
