9

C 0.73597682 -0.56703638 -2.03370033
C -0.26815936 -0.12768416 0.30627659
C 0.22508574 -0.34402969 -0.84444151
C -0.78599974 0.09905512 1.49878852
O -0.47322957 1.12621721 2.31928912
H 0.19539737 1.67918950 1.89796440
H 0.40027912 -1.39847553 -2.64431827
H 1.51015325 0.07926779 -2.43511731
H -1.53950378 -0.54650390 1.93525914
