9

N -0.05899358 -0.90413064 -0.22946666
C 0.95747596 -1.7245821 -0.31881067
C -0.56276447 1.4554546 -0.46046138
C -0.17561229 0.38683635 0.47119537
N -0.88708913 2.2677953 -1.212407
H 0.79328 0.61772555 0.9204873
H -0.91800517 -1.1789371 -0.6980872
H -0.9257974 0.3232093 1.2662311
H 1.7775061 -1.2433712 0.26131916
