14

C 2.1219876 -0.16682546 -1.196461
N 1.1202687 -0.5442504 -0.21768844
C -0.037934996 0.20512308 -0.11929492
O -0.1935032 1.270832 -0.68895894
N -0.9981391 -0.36782396 0.690743
C -2.1557188 0.42520183 1.0651687
H 1.8451512 -0.4487373 -2.2205842
H 3.0708194 -0.64131284 -0.93896955
H 2.2490673 0.9162635 -1.1672686
H 1.0228254 -1.5370908 -0.057388484
H -0.65067136 -0.99446505 1.4034073
H -2.9272819 -0.23481728 1.468094
H -1.92374 1.2000982 1.8067342
H -2.5431306 0.91780454 0.1724669
