14

C 0.5038998 -1.5524188 -1.7746403
N 0.75303185 0.45096153 -1.2621975
C 0.05776249 0.20096865 -0.18723089
O -0.32486936 -0.99822444 -0.042440124
N -0.29215962 1.1493359 0.7431528
C -0.8070918 0.7448453 2.0357342
H 0.9999184 1.4047004 -1.5049541
H -0.3005452 -2.2749016 -1.6745523
H 1.4545175 -1.8875732 -1.3816415
H 0.25232264 1.9964273 0.7274065
H -1.3114719 1.5937866 2.5047617
H -1.5303947 -0.058315497 1.8849454
H 0.56642216 -1.1503257 -2.7803688
H -0.021342533 0.38073403 2.7120247
