14

C 0.59085875 1.60277734 -1.74697959
N -0.27387375 0.67843182 -1.03305419
C 0.23689950 -0.00650542 0.05432191
O 1.42372105 -0.02737798 0.33115539
N -0.72469987 -0.66367825 0.79193682
C -0.30888187 -1.60863074 1.81389910
H 0.16527216 1.80049046 -2.73338419
H 0.54523546 -1.18754660 2.34524142
H 1.56855385 1.13427961 -1.86716929
H -0.01051180 -2.57994456 1.39791360
H -1.12849800 -1.75812503 2.52079917
H -1.57495642 -0.90235548 0.30070325
H 0.73118229 2.55354380 -1.21646193
H -1.24030171 0.96464108 -0.95892150
