10

N 1.1138213 1.771186 -0.55532366
C 0.3502919 0.85192424 -0.15105972
C -0.32339934 -1.3716384 0.22713074
C 0.70569634 -0.58700526 -0.15600678
C -1.4173839 -0.23301025 0.76740223
O -0.85585606 1.0274348 0.4794943
O -1.6305748 -0.8395216 -0.3723973
H 1.7376488 -0.89095217 -0.28756648
H -0.3553558 -2.4155602 0.5003976
H 0.67511165 2.6871424 -0.452071
