10

N -1.275543 -0.060152445 1.7323502
C 0.8837685 1.7210552 -0.50214875
C 0.68721384 -0.5774033 -1.1784885
C -0.5130149 0.11305209 0.7486846
C -0.13627996 -0.9184846 -0.2004776
O 0.051258378 1.3744274 0.49089032
O 1.1774639 0.6984655 -1.317236
H 1.0603489 -1.2301625 -1.9603153
H -1.401718 0.7964429 2.267927
H -0.5334977 -1.9172405 -0.0811856
