11

O 0.5798582 1.431756 2.602599
C 1.2068194 0.28431922 0.49367055
C 0.84969914 0.89531314 1.6066923
C -1.5577711 -0.36781308 -0.61114585
N -1.0638272 0.8058558 -0.40464285
C 0.2548895 0.1904946 -0.65805715
N -0.42515346 -1.1128061 -0.94836974
H 0.7145412 0.57145816 -1.5748519
H 2.2137787 -0.11243742 0.43474287
H -0.17386584 -1.8947812 -0.34751713
H -2.5989687 -0.6913593 -0.5931202
