9

N -0.8863537 -0.57583946 -1.2230922
C 0.23404516 -0.14635932 -0.55283445
C -0.049993776 0.37117586 0.7872734
N 0.95791805 0.8048686 1.4864867
N 1.8344525 1.1739408 2.0866299
O 1.345547 -0.15843724 -1.045112
H -0.7029705 -1.09274 -2.0717525
H -1.705734 -0.8442371 -0.7047874
H -1.0269108 0.46762785 1.237189
