9

N 1.32439869 0.26485056 -2.47769323
C -0.24653636 -0.41525722 -0.75349240
C -0.10660797 0.09826743 0.60070400
N 0.59768578 -0.04618195 -1.67876378
N -0.83766679 -0.15701223 1.60509417
O 0.94592621 0.93885556 0.72512398
H -1.02398860 -1.09602897 -1.05615377
H -1.59239807 -0.80017024 1.38061500
H 0.93918704 1.21267705 1.65456648
