9

N -0.2780717 -1.6688515 -0.23659037
C -0.26537934 -0.40465415 0.09818657
C 0.6340667 0.6414973 -0.30242172
N 0.21966022 2.8591182 0.6105393
N 0.41283628 1.8382113 0.19255161
O -1.2515517 -0.21525694 0.90449846
H 1.4700507 0.5336341 -0.97783136
H 0.3618426 -2.112558 -0.88121355
H -1.3034538 -1.4711399 0.5922812
