11

N 0.08168063 -0.7281882 -0.5326883
C 1.1969115 -0.5400177 0.48811403
C 0.8713078 0.45693293 -0.2518704
N 0.86535615 1.7142581 -0.7611192
C -1.2091658 -0.7824436 0.06248818
N -1.3829099 -1.2672241 1.2201535
H 0.5975484 1.7643552 -1.7334768
H -2.3809774 -1.3110619 1.4294136
H 1.6616298 2.285928 -0.51912487
H 1.694038 -1.1384752 1.225249
H -1.9954197 -0.45406392 -0.6271389
