11

N -0.97839475 -1.7051457 0.5977448
C -0.3470506 -0.538803 0.15330233
C 0.96630406 -0.15987279 0.2702245
N 1.0412458 1.0529729 -0.3995676
C -0.19352475 1.3243167 -0.87778026
N -1.059236 0.3919838 -0.5598085
H -1.9812609 -1.6076967 0.5115607
H -0.7300086 -1.9723916 1.5404389
H 1.8274201 -0.6187909 0.7264411
H 1.866028 1.6168277 -0.51236016
H -0.41152215 2.216599 -1.4501957
