11

N 0.90871299 0.01262367 -1.89755752
C 1.63676427 0.46960987 -0.91746934
C -0.25747235 -0.10330211 -0.01006808
C -1.48480201 -0.43766022 0.76475489
C 0.94808537 0.42385531 0.32457487
O -0.29065555 -0.35127003 -1.32996725
H 2.64002946 0.82227090 -1.12300448
H 1.29533422 0.73230618 1.29804377
H -2.33978963 0.14378514 0.40706352
H -1.73145418 -1.49905549 0.66289382
H -1.32475307 -0.21316296 1.82073580
