11

N -0.49688354 -0.33013976 1.4527587
C 1.2154274 -0.61456054 -0.6629837
C -1.0274258 0.7712315 0.810948
C -0.9034139 0.6808276 -0.55196124
C -0.1842712 -0.55261385 -0.63485247
O -0.5911537 -1.3364501 0.40632734
H -1.3189394 1.625457 1.4088402
H -1.0342966 1.4383268 -1.3072137
H 1.7805853 0.10908907 -1.244876
H 1.6942098 -1.5759287 -0.49194935
H 0.8661617 -0.21523902 0.8149623
