10

O 0.21308556 2.21225 0.3954037
C 0.11650808 0.8844487 0.16408564
C -1.0038174 0.19475506 -0.21331596
N -0.5692628 -1.1192845 -0.31326118
C 0.745127 -1.1401733 0.0009266832
N 1.1933259 0.059885297 0.29550123
H 1.1303418 2.3749604 0.6509291
H -2.0202308 0.49182203 -0.41125378
H -1.1352774 -1.909469 -0.5726484
H 1.3301998 -2.0491943 0.0036330917
