9

O -0.37092268 1.4049517 1.4578342
C 0.60025173 -0.55857533 0.37126246
N -0.8708907 0.690304 -0.73576134
N 0.35695016 -1.0242288 -0.88418376
N -0.5196467 -0.2754172 -1.5377105
C -0.21000995 0.54992604 0.43301284
H 1.2808138 -1.0261352 1.0633067
H 0.75018376 -1.8300589 -1.3432748
H -1.0167295 2.069234 1.1755141
