9

O -0.6536194 1.8363613 -0.39834288
C -0.13741097 0.6402997 -0.10082742
N 1.1128811 -0.8114629 0.84414923
N 0.73473144 0.44865337 0.8877815
N 0.39944187 -1.4836252 -0.18259236
C -0.40306446 -0.56918913 -0.73808604
H -0.2623814 2.4815912 0.20808424
H -1.08607 -0.7988106 -1.5421933
H 0.29549184 -1.7438176 1.0220269
