11

N 1.6195365 -0.1411517 -0.6350445
C 1.074939 -0.1352148 0.6402694
C 0.57849807 -1.031844 -0.43004513
O -0.9401398 0.66574043 -0.12056165
C 0.07028954 0.99433774 0.85663056
C -0.7641501 -0.49991706 -0.9418948
N 0.5508288 -1.3960265 0.904898
H -0.37148762 0.9693623 1.8548449
H -0.7228796 -0.1996625 -1.9921708
H 0.48686135 1.9758409 0.62116677
H -1.5822966 -1.2014647 -0.75809264
