11

N 0.78943769 -0.05805604 1.56350903
C -0.03010311 -1.24930663 -0.39916776
C -0.73217939 1.09065866 0.04290884
O -1.02902377 -0.22009559 -0.48402090
C 1.11503510 -0.50424579 0.29450600
C 0.69354241 0.89271972 0.55296684
N 1.58929861 0.56163801 -0.45254445
H -1.43137108 1.32234925 0.84893188
H -0.78940872 1.82083157 -0.76696525
H -0.41022355 -2.07627551 0.20659370
H 0.23499537 -1.58021749 -1.40671753
