11

N -0.89289147 -0.04090001 -1.2427038
C 0.01586317 -0.9627506 -0.56887984
C -0.9459784 -0.08478586 0.19155915
C 0.17589852 0.7665127 0.7932255
C 1.1496727 -0.19066653 0.05963958
O 2.3333516 -0.36764523 0.12791774
H -0.017758243 -2.0147922 -0.8272901
H 0.30494818 0.6691532 1.8750468
H -1.8652852 -0.39126933 0.67585254
H -0.43530166 0.79222065 -1.6058168
H 0.17748056 1.8249232 0.5214495
