11

O 0.4319824 -0.44385818 2.3194213
C -0.35168564 0.4875929 -0.72354126
C 0.11410008 -0.09061603 1.2247503
N 1.031235 0.17152877 -1.0230781
C -0.928566 -0.587631 0.19294374
C 0.5109537 1.1200647 0.3522152
H -0.90855277 -1.6304277 -0.14058182
H -1.9317052 -0.3434062 0.551642
H 1.3448461 -0.74257606 -0.7115005
H -0.90185785 1.0102631 -1.5019579
H 1.5892501 1.0490656 -0.5403129
