11

O -0.13772675 -0.76536876 -2.3688588
C 0.05277141 0.9755418 -0.5690608
C 0.5447604 0.22425349 0.6527199
N -0.4741405 -0.772961 0.98439884
C 0.09799215 -0.42454207 -1.2412028
C 0.68091476 -1.1552943 -0.01641766
H -0.37295425 -1.2638717 1.8648772
H 0.8194421 1.6220553 -1.0032326
H -1.4444802 -0.5914424 0.73853385
H 1.128702 0.62874734 1.4731399
H -0.8952814 1.5228823 -0.5148969
