12

C 0.64494144 0.13530067 1.26031374
C 0.26132365 -0.61230177 -0.90452642
C -1.24956746 -0.64083399 -1.04347264
O 0.66939737 0.45278124 -0.04691850
N 0.97173553 1.24758011 1.92292916
H 0.63513911 -1.55427032 -0.48729467
H 1.17192288 2.13766482 1.47178242
H 1.02646081 1.20661493 2.92868069
H -1.54778498 -1.43822406 -1.73299280
H 0.74724989 -0.41999839 -1.86702359
H -1.71151729 -0.82831569 -0.06930889
H -1.61930138 0.31400227 -1.43216816
