11

N 1.3821603 0.931691 0.5211037
C -1.5322225 -0.97188187 -0.4121241
C -0.39711913 0.9499158 -0.7851317
O -2.3726509 -1.8221148 -0.506086
C 0.39606416 0.08921932 -0.12744775
O -1.5985043 0.2626446 -1.0175015
N -0.32283652 -1.0493252 0.29127437
H 1.2114998 1.1205873 1.5087672
H 0.0642072 -1.9793684 0.37294045
H 2.3620713 0.7065231 0.35905692
H 0.8073308 1.7621089 -0.20485179
