11

N -0.0790651 2.0631287 0.2737249
C 0.3128313 -0.81789047 2.2536123
C -0.10973905 1.1098212 -0.5721066
N 0.091480345 -0.5963883 1.0672693
C 0.017286923 -0.29505572 -0.16801964
N -0.019209763 -1.286997 -1.1670913
H -0.5884245 -1.0050763 2.8545246
H -0.15487772 2.9564896 -0.20978586
H 0.07345878 -2.2199926 -0.786235
H 0.6783055 -1.1409127 -1.8881605
H -0.2220467 1.2328737 -1.6577325
