11

N 0.24188076 1.101277 -0.5782001
C 1.198414 1.7937195 -0.16022076
C 0.12916778 -0.7600703 0.78206503
N -1.7439159 -0.19725843 -0.7662928
C -0.46413139 0.07083022 -0.2574829
N 1.309818 -0.48063886 1.1944487
H -1.824584 -1.1137635 -1.1848307
H -2.0436604 0.5110454 -1.4234416
H 1.5749879 -1.0832684 1.9696345
H -0.49894577 -1.5668458 1.1728123
H 2.120969 1.724973 -0.74849194
