11

C -1.0287821 0.3931162 1.1854621
C 0.41520652 -0.32486966 -1.1713979
O 0.9073676 0.6247754 -0.26154
C 0.098717354 0.97138876 0.78399616
O 0.34771362 -1.6171513 -0.65158
H -1.5592681 0.8321276 2.0225546
H 1.0972246 -0.25917587 -2.0275602
H 0.5127075 1.8450867 1.2793388
H -1.4308964 -0.50690365 0.73763627
H 1.2437457 -1.8993685 -0.42677385
H -0.6037363 -0.059025947 -1.4701363
