10

N -0.47690973 -1.2351912 0.9475107
C 0.24548636 -0.10548289 0.78071314
O -0.6967906 -0.13729277 -1.4291987
C 0.1253877 0.53163445 -0.5905261
O 0.95394427 0.40606958 1.6245353
N 0.7241005 1.5825471 -0.9439801
H -0.43592322 -1.7038374 1.8397595
H 1.29096 1.9214766 -0.16719142
H -1.0394094 -1.6116805 0.20445934
H -0.690846 0.35175696 -2.2660816
