10

N 0.82605433 -1.5072206 -0.4576029
C -0.20202333 -0.6478687 -0.36308616
O -1.3338403 -0.81671387 -0.7800686
C 0.20213044 0.64702123 0.36376157
O 1.3326555 0.8134366 0.7848889
N -0.82496333 1.5074649 0.4543002
H 1.7117906 -1.2311996 -0.05863142
H 0.7048158 -2.3987708 -0.90536255
H -0.7054692 2.39915 0.9044001
H -1.7111506 1.234701 0.057400875
