10

N 1.03835390 -1.22711772 -0.25868881
C -0.63184119 0.49589575 0.04407386
O -1.42624205 -0.38501248 -0.60379995
C 0.78860374 0.00249625 0.24290140
O 1.59729697 0.70464224 0.81617329
N -1.05919505 1.61578671 0.43268299
H 1.96688135 -1.60768713 -0.15660666
H 0.32486562 -1.75531075 -0.73009309
H -0.30207103 2.12132984 0.89180488
H -2.29665236 0.03497745 -0.67844789
