11

O 0.71242774 1.2117602 -1.0378863
N -0.59591234 -1.3622969 0.5398197
C -0.22733775 0.02691394 0.46065953
C 1.2107751 0.36627382 0.036904335
O -1.5603052 1.1750934 -1.3878206
C -0.58836037 0.87415904 -0.77310354
H -1.5828468 -1.4539794 0.7498344
H -0.52565414 0.5334915 1.3833345
H -0.43373454 -1.8336803 -0.34344682
H 1.7743505 -0.47793943 -0.3669033
H 1.8165979 0.9402041 0.73860824
