11

O -1.273767 -0.46357855 -1.1647279
N 1.2114415 0.3292956 0.8947214
C 0.27499545 0.020156065 0.10989824
C 0.14767742 -0.6741864 -1.2207998
O 1.0189312 1.0074056 2.1040146
C -1.2109596 0.20986788 0.11363932
H -1.5554528 1.2498719 0.06495391
H -1.7491843 -0.32609922 0.90462804
H 2.1096835 0.5472001 1.4917289
H 0.41311365 -1.7361215 -1.2279341
H 0.6135211 -0.16381137 -2.0701222
