9

O -0.032127544 2.0228467 0.40299523
C 0.28277278 0.76448727 0.94788873
C 0.24886356 -0.31121477 -0.050717797
C 0.22023934 -2.223105 -1.9583907
C 0.1886096 -1.1669326 -0.90083265
N -0.90837246 -2.3820853 -1.5688304
H -0.90321463 1.9648142 -0.008465549
H -0.38847494 0.48567146 1.7758373
H 1.2917043 0.8455176 1.360516
