11

N 1.9824089 -1.3891677 0.46876344
C 0.9418726 -1.8301936 0.0760724
C -1.1892309 0.46877268 -0.90243715
C 0.515477 -0.33662874 0.8517361
C 0.10762411 0.6056144 -0.24926116
O -0.96318793 1.4719064 0.08320005
H -1.3225616 0.83342236 -1.9186748
H -1.8489106 -0.33963355 -0.5923252
H 0.9363282 1.0704385 -0.7844404
H -0.34234473 -0.71354663 1.4080946
H 1.1825247 0.15901574 1.559272
