11

N 0.46199965 0.34010956 -2.9286628
C 0.36007372 0.6313958 -1.8151424
C 0.20899074 0.9667416 -0.39447764
C -0.59781146 -0.08782501 0.34293267
C 0.05924336 -1.1817411 1.0559025
O -0.47393063 -0.06066323 1.7504548
H -0.28114972 1.9432443 -0.3094973
H 1.1978458 1.0562233 0.06796291
H -1.6130334 -0.23755436 -0.023579145
H -0.46853188 -2.122922 1.2075518
H 1.1463037 -1.2470088 1.0465541
