11

N 0.63608887 0.54705685 -1.71311575
C 0.77228682 0.20342239 -2.82541103
C 0.46460393 0.90055993 -0.34135894
C -1.00330372 -0.87904216 0.83048145
C 0.31926351 -0.33869321 0.51569009
O -0.26374134 -0.12031410 1.78079166
H -0.42646274 1.52873903 -0.23695713
H 1.32908218 1.48996535 -0.01784250
H -1.89251087 -0.38451922 0.43792083
H -1.11410851 -1.93599052 1.05868882
H 1.17880175 -1.01118427 0.51111199
