10

O 0.71014524 -1.4226183 -0.16516043
C -0.52247137 0.7709509 -0.028648755
C 0.5974326 -0.13300128 0.42262778
O 1.4028893 0.14078353 1.2594181
C -0.18295906 -1.7157556 -1.0870351
O -0.48848256 1.9829063 0.6694606
H -1.4761791 0.24763204 0.13026217
H -0.43100214 0.92833084 -1.1135772
H 0.26180238 1.9459935 1.2818621
H 0.12882487 -2.7452219 -1.3692093
