10

O 0.8201705 0.9353595 -1.7101489
C -0.018155001 0.81368333 -0.60518354
C 0.20821232 -0.4878656 0.12180262
O 1.0239154 -1.300037 -0.25830618
C -0.6155217 -0.78877664 1.3647437
O -1.4400016 -0.023457566 1.7911744
H 1.3486366 0.124887474 -1.7492862
H 0.13784973 1.6358345 0.110141926
H -1.0795395 0.8584741 -0.8958994
H -0.38556653 -1.7681019 1.8309613
