10

O -0.55833185 1.9505603 0.018235166
C -0.81253386 0.5789202 0.054650985
C 0.8183053 -1.3688158 -0.90790886
O 0.2503159 -1.6550736 0.20057102
C 0.46809408 -0.178696 0.3710065
O 1.3385164 0.23030962 1.083571
H 0.102812596 2.122441 0.70307493
H 1.1481053 -2.2613144 -1.4661187
H -1.2286172 0.27410296 -0.90878654
H -1.5266668 0.30756578 0.85170454
