10

N -1.2278079 -0.7046449 -0.29497167
C -0.62843835 -0.006618894 0.69609696
O -1.1199133 0.20290175 1.7849095
C 0.7656261 0.55631727 0.3811361
C 1.3058051 0.19232322 -0.92698336
N 1.6814998 -0.12486334 -1.9712275
H -2.1413283 -1.0925807 -0.11748808
H -0.78485143 -0.8819955 -1.1829504
H 0.7052821 1.6455615 0.4634568
H 1.4441267 0.21359974 1.1680217
