10

N 0.69879705 1.1106982 -0.7480311
C 0.5328478 0.32178748 0.30058128
O 1.1015519 0.5289241 1.4316641
C -1.4949269 -0.94327706 -0.3688297
C -0.31880915 -0.84469056 0.4394897
N -2.4507024 -0.982145 -1.0224594
H 0.25989345 -0.30636474 1.7478176
H 0.25868845 -1.7676513 0.48794478
H 1.174457 1.9955274 -0.64895386
H 0.23820287 0.8871915 -1.6192237
