10

O 1.9668621 0.79780656 0.3809845
C 0.76743704 0.24602014 0.18730941
C -0.21365109 1.0495876 -0.4685057
N -1.5082986 -0.7592851 -0.51749784
N -1.3880799 0.56547606 -0.7586846
C -0.6450118 -1.5007955 0.22528207
N 0.5345765 -0.9515079 0.649293
H -0.0197245 2.095658 -0.6792607
H 2.4842777 0.14350086 0.8816066
H -1.9783875 -1.6864607 0.09947323
