12

O -0.46088877 -2.17298660 0.62467529
C 1.80750327 1.37737552 -0.98118337
C -0.56551225 0.55199400 -0.00354048
N -0.54257443 1.00647486 -1.15747699
N -0.77685768 0.17883521 1.12854208
C -0.64748444 -1.19300449 1.60720613
N 0.69388686 1.47206773 -1.63875666
H 0.53376532 1.87706301 -2.55562135
H -1.53881805 -1.39372053 2.21438549
H 2.55677360 1.83743834 -1.65457302
H -1.29343914 -2.32461564 0.16328516
H 0.23364583 -1.21692137 2.25305746
