11

C -0.6641613 0.14739804 0.8460991
N -0.6515304 0.7387662 -0.46735683
C 1.2372316 -0.8057538 -0.2519115
C 0.31672877 -0.093679465 -1.227644
N 0.6302107 -0.5989109 0.8895837
H -0.20550542 -0.8828288 -1.789902
H 0.85918444 0.5096877 -1.9623493
H -0.2694385 1.6781995 -0.40011948
H 0.9622681 -1.0111344 1.7526965
H -0.7326506 0.893446 1.6477599
H -1.4823375 -0.5751901 0.963144
