11

N 0.5630665 -1.4129661 -1.361057
C 0.1778762 -0.44202593 -0.44874623
C -1.0221907 0.103953436 -0.10770144
C -0.71263546 1.131604 0.85411996
C 0.62806994 1.1201259 1.0126556
O 1.1880506 0.15490966 0.21457712
H 1.4333868 -1.8624743 -1.1095192
H -0.16362564 -2.0962806 -1.5338793
H -1.9956912 -0.17178248 -0.48502523
H -1.4159318 1.7841709 1.3521979
H 1.3196248 1.6907656 1.6123779
