10

O 1.7111032 -1.7809724 0.82370514
C 1.1514912 -1.4692787 -0.19900928
C 0.197597 -0.33991015 -0.26086655
N -0.38938892 -0.03975338 -1.3891532
O -1.1897072 1.0305933 -1.1197712
C -1.0663999 1.3591365 0.1797411
C -0.19941457 0.53124523 0.79635626
H 1.3134576 -2.001588 -1.1540179
H -1.6607708 2.2032824 0.50078905
H 0.13203223 0.5072455 1.8222264
