10

O -1.5081218 0.7776952 1.4527315
C 0.36620724 -0.18461177 -2.6348565
C 0.86543465 -0.7787597 0.7301736
N 0.33079755 0.08068833 -1.4937165
O 1.382469 -1.7478743 0.25449193
C -1.227724 0.5015659 0.31792912
C 0.23146889 0.33957368 -0.11483583
H -1.9811887 0.33542857 -0.47532484
H 0.753835 1.2685869 0.14668192
H 0.786822 -0.5922926 1.8167255
