10

O -1.3938022 1.3329687 0.80465525
C 0.22249636 -0.10811025 -1.4749727
C 0.34812593 -0.26002342 0.7360401
N -0.38768578 -1.166492 0.03808501
O -0.48454654 0.72972965 -1.8436669
C -0.8041661 -1.8495864 -0.860399
C -0.28930807 0.9599472 1.1596456
H 0.36010864 1.5839175 1.8037778
H 1.247812 -0.6384725 1.2114058
H 1.1809657 -0.5838786 -1.5745707
