9

O 0.86267326 0.01364547 2.44604094
C 0.16963695 0.44584738 0.20846214
N 0.40147859 0.49243498 -1.00398184
N -1.05204428 -0.36826283 -2.34719117
N 0.02862114 -0.60346399 -1.79401601
C 0.01372806 0.52211068 1.50918441
H -1.21744691 -1.17239780 -2.96335125
H -0.85027321 1.01435698 1.94102458
H 1.64362654 -0.34427105 2.00382807
