12

O -0.54587287 0.6179914 -1.7006935
C 0.1877902 1.1712514 -0.6337346
C 0.36510497 0.16311179 0.48681313
C -0.7110149 -0.7888315 0.83719575
N 0.4214664 -1.2209392 0.018241283
H -0.24053544 -0.3002391 -1.7678645
H -0.3621616 2.0476968 -0.27131814
H 1.1807735 1.5134478 -0.96592724
H 1.0477654 0.45805657 1.2817804
H -1.6560429 -0.73815084 0.30636916
H -0.7704294 -1.1435552 1.8645525
H 1.0831566 -1.7798401 0.54458576
