12

O -0.9279623 0.4123128 0.66603667
C -1.2036393 0.9639206 -0.42603794
C 0.9419806 0.5946207 -1.1686772
O -0.32581463 1.1134627 -1.3649969
C 0.048320603 -1.2421967 0.62513024
O 0.8141289 -1.0084715 1.6823559
H 1.3530567 0.87294817 -0.1987941
H 0.6180603 -1.4706361 -0.26462173
H 1.5388176 0.85136324 -2.0410926
H -0.91522664 -1.7170237 0.75867194
H -2.2042282 1.3155622 -0.679471
H 0.26250663 -0.68586224 2.4114969
