12

O -1.2610402 -0.66055936 1.2309766
C 0.12642133 -0.48718747 1.1832932
C 0.58448255 0.703548 0.34460887
O 0.85387003 0.40414286 -1.0450062
C -0.14857265 0.026596397 -1.8247578
O -1.2884237 -0.18885288 -1.4886916
H -1.5816269 -0.6315262 0.3144329
H 0.6614519 -1.3863404 0.8331589
H 0.44951245 -0.29808852 2.2136257
H 1.550445 1.0744721 0.69366163
H -0.16124672 1.502189 0.4020662
H 0.21472673 -0.058393728 -2.8573687
