12

O -0.66771752 -0.60370723 0.75725373
C 0.30426034 0.34546234 1.16250192
C 1.03879262 0.62811569 -0.14017871
O 0.01369099 0.48131950 -1.10942535
C -1.02594101 -0.30804960 -0.57158376
O -1.25781153 -1.46409034 -1.27335474
H -1.96352280 0.26050825 -0.62082020
H -0.47793226 -2.02839079 -1.17389761
H 0.92809134 -0.10637106 1.93684172
H 1.44426016 1.64189931 -0.20764015
H -0.18086339 1.24796046 1.55717841
H 1.84469288 -0.09465673 -0.31687556
