9

O -0.84820366 -1.7185262 -0.48428887
C 0.22244489 1.4026848 0.123329185
N 1.4098506 0.8455367 -0.19605987
N 1.1742027 -0.44663638 -0.39189273
N -0.7946103 0.5657349 0.21528636
C -0.19520216 -0.61665595 -0.09069916
H -1.7819006 -1.580458 -0.2769522
H 0.13728604 2.4650319 0.3181783
H 0.6761326 -0.9167116 0.78309894
