10

N 0.1334725 -1.0054908 1.6285549
C 0.38739675 -0.9059514 0.2774427
O -0.3989055 1.9124452 -1.6296003
N -0.016381565 0.3498363 -0.23545408
C 0.008598562 0.63746643 -1.5560209
O 0.9237302 -1.7589399 -0.37888652
H 0.29153398 -1.9311304 1.9987597
H -0.27668792 1.0711837 0.43499315
H -0.6488802 -0.51037943 2.0251915
H -0.4038768 2.1409602 -2.5649803
