12

O 1.0414512 1.1023616 -1.01148
C 0.60061854 1.0170621 0.31858593
C -0.4452072 -0.089769796 0.4478813
O -1.4925877 0.18528809 -0.4449085
C 0.16005377 -1.4376724 0.111788064
O -0.32772592 -2.143979 -0.73865
H 0.23498963 1.1380484 -1.5482656
H 0.15859292 1.9586704 0.67132276
H 1.4747336 0.7960798 0.94256496
H -0.806348 -0.13704917 1.4896073
H -1.6406635 -0.6381983 -0.93964976
H 1.0420927 -1.7508416 0.70120364
