11

O -1.60504198 -0.09200321 1.45186157
C -0.68712929 -0.03656204 0.46996892
N 1.65810790 0.32101253 0.24724778
C 0.65723607 0.30545886 1.02820335
O -0.09977526 0.54370797 -2.67826214
C -0.11596249 -0.29443319 -1.81552765
N -1.00103180 -0.27296038 -0.72824782
H -2.45641051 -0.30191419 1.03541154
H 2.51246558 0.55554638 0.75640127
H 0.46679918 -1.23334965 -1.87080723
H 0.67074278 0.50549682 2.10375012
