11

O 0.004300525 -2.4712734 -1.1710896
C -0.44621173 1.1612767 -0.18654217
N -0.21116897 0.9336183 -1.4132469
C 0.6448409 -1.6049575 -0.63605857
O -0.3520299 0.54944384 2.0656023
C -0.12269974 0.101843275 0.81787956
N 0.32215133 -1.0605431 0.6151291
H 1.6248114 -1.2548994 -1.0120217
H -0.85825175 2.083161 0.23458827
H -0.14090253 -0.17761983 2.6731591
H -0.46483952 1.7399498 -1.9873995
