11

O 1.498527 -1.6917794 0.81628525
C -1.1786293 0.29035524 -0.12236984
N -0.6569278 -0.8562536 0.44811088
C 1.0636486 0.52260554 -0.07675436
O -2.4369156 0.72654873 -0.0775769
C 0.65542763 -0.7201863 0.4330194
N -0.08252977 1.1488167 -0.39492956
H -0.19091237 2.090426 -0.7403234
H 2.0502307 0.9112718 -0.28199062
H -1.6723825 0.002754751 -1.1341656
H 0.9504635 -2.4245594 1.1306949
