10

C 0.9672483 0.18311541 0.17648831
O 0.683584 -0.51734114 1.3754174
C -0.2390804 0.36041325 -0.7434926
O -0.21474607 1.1317991 -1.6812121
N -1.2897227 -0.42947617 -0.4052895
H -1.1732957 -1.1164052 0.32231
H 1.7061698 -0.4133881 -0.36625758
H 0.24822442 0.08928748 1.9858276
H -2.091532 -0.46177164 -1.0160946
H 1.4031504 1.1737672 0.3523031
