10

O 0.45037782 -1.4998982 -0.014624656
C -0.27184036 -0.3562826 -0.9451462
C -0.26302028 0.5806366 1.0526775
N 0.49009022 1.219928 0.18432342
N 0.51990336 0.75189227 -1.0725459
C -0.9249263 -0.5568267 0.39588624
H -0.409798 0.97734684 2.048832
H -0.03184149 -2.3250313 -0.15252702
H -0.57476604 -0.8580938 -1.8579837
H 1.015821 2.0663288 0.3611084
