15

N -1.154871 -1.6526906 1.0389712
C -0.8906034 -0.60555106 0.22620934
O 0.8061715 -0.7287802 -0.98580205
N -0.5009832 0.5648687 0.80597943
C 1.3661349 0.50601566 -0.72395456
C 0.28559303 1.4166675 -0.08005827
O -1.4735178 -0.6112929 -0.9645054
H -0.39158216 1.8184011 -0.84004307
H 2.216089 0.42018405 -0.019832043
H -0.11027786 0.46194682 1.731219
H -1.4031981 -2.4967175 0.5445829
H 0.69262546 2.2523668 0.4986876
H 1.7499506 1.0164104 -1.6219863
H -0.5740238 -0.5967933 -1.4905633
H -0.61750734 -1.7650349 1.8810953
