15

N -0.4762882 -2.2383802 1.2979281
C -0.3186661 -0.92384344 0.902683
O -0.8011501 0.0019573735 1.5475522
N 0.42053127 -0.75873 -0.24016313
C 0.93404746 0.54130167 -0.6725256
C -0.13531421 1.5819101 -1.01646
O -0.611043 2.3021724 0.08719107
H -1.1878326 -2.3429987 2.0081675
H -0.47471422 -2.9573636 0.5910499
H 0.970067 -1.5568477 -0.52603316
H 1.5293732 0.33984044 -1.5687702
H 1.5994968 0.97112864 0.08785133
H -0.94202805 1.080446 -1.5757018
H 0.31684968 2.320027 -1.6893332
H -0.8233292 1.6393802 0.7665638
