9

O -2.1267233 -0.7238588 0.14663956
C -0.29174262 0.8895763 0.20430182
C 1.1398671 -0.7089315 -0.2826685
O 1.0895599 0.60886174 -0.028572505
C -0.9592237 -0.47665957 0.038471993
N 0.070245735 -1.4085826 -0.27295867
H -0.64512825 1.6134267 -0.5316514
H -0.41553643 1.2927232 1.2125375
H 2.1386814 -1.0865557 -0.48609996
