9

O 0.17372410 0.41983734 -1.16285272
C 1.13356120 -0.38107706 -0.67201316
C -0.19433255 -0.33152070 1.00056150
O -0.66665280 -0.53314455 2.08320845
C -0.79119886 0.52820609 -0.11489869
N 1.03532216 -0.85464745 0.51110813
H 1.95418238 -0.56785364 -1.35998830
H -1.75124908 0.14402601 -0.46300383
H -0.89335639 1.57617407 0.17787846
