9

O -0.9192941 1.756641 -0.5709124
C 0.028375158 -1.3939265 -0.36520806
C -0.6157302 0.56148285 -0.22940521
O 0.9571424 -0.8628893 0.41233048
C 0.54023397 0.49873862 0.60063475
N -0.9613506 -0.6480258 -0.7702379
H 0.16999456 -2.4333966 -0.63951045
H 0.32022247 1.7797424 -0.097428106
H 0.48040628 0.7416335 1.6597369
