12

N 0.8586095 -1.7371267 0.56520647
C 0.26679763 -0.54373825 0.17070696
C 0.9302376 0.39583763 -0.6250452
N 0.34879926 1.5087092 -1.0604233
C -0.92060363 1.6959046 -0.6983834
N -1.6524383 0.8802552 0.055126645
C -1.0551404 -0.22834082 0.48528975
H 1.8667716 -1.7351176 0.603694
H 0.44577205 -2.1776013 1.3736919
H 1.966958 0.23602295 -0.9195143
H -1.40346 2.6021466 -1.0544353
H -1.6523029 -0.89695126 1.1040857
