10

N 1.4793726 0.49957922 0.9219896
C 0.22351779 0.6235771 0.37891412
O -0.45016903 1.6294867 0.44482112
N -0.23028159 -0.54955214 -0.23343378
C -1.4569637 -0.6409626 -0.8703652
O -1.8565379 -1.6702799 -1.3575581
H 1.8770396 1.3756187 1.2268256
H 2.127782 -0.16483277 0.5283846
H 0.2905446 -1.4142163 -0.16161263
H -2.0043042 0.31158146 -0.8779652
