10

N 1.7429124 0.5903188 -0.2952441
C 0.790923 -0.10327763 0.37984616
O -2.5234213 -0.21665059 -0.5502903
N -0.47397712 0.021294205 -0.22406009
C -1.5688562 -0.5500976 0.21983312
O 0.9910971 -0.7634264 1.3789644
H -1.6646341 -1.1982347 1.0895742
H 2.6640184 0.63169974 0.10749222
H 1.5023752 1.1966528 -1.0609914
H -1.4604372 0.3917216 -1.0451243
