10

N 1.50616339 1.06143325 0.71532917
C 0.73585950 -0.05074732 0.57127147
O 0.94628073 -1.10396600 1.13351483
N -0.33340823 0.20476225 -0.33033811
C -1.10185652 -0.78487870 -0.53640534
O -2.14153632 -0.70032925 -1.35947734
H 1.25054441 1.91272685 0.24579793
H 2.27816447 1.02456629 1.35464493
H -0.99353858 -1.76742210 -0.07912651
H -2.14667267 0.20385420 -1.71521090
