9

C -1.5497121 1.1196321 0.0130764805
C 1.8629888 -1.0999876 -0.23872356
C 0.64286864 -0.3929493 -0.06618675
C -0.34737334 0.29817638 -0.039442915
O 2.1082485 -2.1272705 0.53482395
H -2.0133264 1.067396 1.0017451
H 2.8833172 -1.8011932 -0.27332288
H -1.3118061 2.1648798 -0.20569927
H -2.275205 0.7713162 -0.7262702
