9

C 0.7746818 0.119338796 -1.6556319
C 0.15163805 0.025126642 -0.33496758
C -0.35051137 -0.042249627 0.76020676
C -0.9723348 -0.1508821 2.0669608
O -0.65461844 0.5150465 3.024399
H 0.81588423 1.160674 -1.9839355
H 0.21736369 -0.458448 -2.3978631
H 1.7981354 -0.2638612 -1.6157855
H -1.7802386 -0.904745 2.136617
