10

C 0.59632087 1.384586 -0.5821277
O -0.4069622 0.38825732 -0.38614973
C -0.03025908 -0.6250035 0.4302749
O 1.0517712 -0.7174378 0.9589763
N -1.0641025 -1.5027367 0.5819198
H 0.85569924 1.8671231 0.36486444
H 0.15384443 2.110498 -1.2662737
H 1.498049 0.94986427 -1.0208527
H -1.8277729 -1.4640771 -0.07230053
H -0.8265882 -2.3910735 0.99166894
