10

C 0.29134037 -0.37545134 0.16651327
O -1.23986423 1.27377561 -0.54372361
C -0.95448149 -0.03766803 -0.17657204
O 0.64216892 -1.58534212 0.67303138
N 1.39695814 0.45109802 0.00263414
H 1.09512809 1.40073397 -0.17062259
H -1.32776443 1.29901633 -1.50639815
H 2.04408920 0.38377587 0.77848395
H -1.78381414 -0.73754011 -0.11037809
H -0.16376057 -2.07239811 0.88703177
