12

O 0.16858224 1.46895711 -1.86974193
C 0.72637211 1.19278539 -0.61367967
C 0.03642528 0.05720218 0.07364921
N -0.82891313 -0.71575846 -0.50276510
N -1.13414733 -1.61342864 0.48355763
C -0.51523521 -1.46413354 1.67125165
N 0.24702495 -0.36209335 1.36424034
H -0.19918645 0.64451875 -2.21674365
H 0.63635284 2.09822599 -0.00221470
H 1.79878505 0.95035483 -0.68655424
H -1.80776500 -2.33185128 0.27604612
H 0.87170469 0.07522138 2.02295450
