11

C -0.43972796 -1.3816082 -0.56663924
C -0.5142159 0.014877128 0.037009586
C 0.8418343 0.64588106 0.22394572
O 1.8963468 0.14341104 -0.058918014
C 0.81411594 2.0110993 0.81620747
N 0.7822192 3.0690215 1.2766001
H 0.04438568 -1.3606837 -1.5471029
H -1.4468074 -1.7893803 -0.68380857
H 0.13716313 -2.055542 0.07335363
H -1.0079072 0.00707321 1.0170304
H -1.1074065 0.6958513 -0.58767813
