11

C -0.63926592 -0.99044317 0.63661313
C -0.03902531 0.25924662 0.03440338
C 0.55097100 0.26940738 -1.31098711
O -0.72712927 0.83215439 -1.06597212
C 0.46770771 1.23590587 0.99987661
N 0.87135420 1.97985451 1.78536123
H 0.55223264 -0.66138648 -1.87702401
H -0.98508173 -1.65123865 -0.16367948
H 0.10271858 -1.51950688 1.24158334
H -1.48934576 -0.73613218 1.27462298
H 1.33486394 0.98213894 -1.55479790
