11

N 0.16078060 0.58577590 -3.08732372
C 0.20255771 0.68378082 -1.93639384
C 0.23323325 0.78917011 -0.47611216
C -0.53756785 -0.35425974 0.17886175
C 0.25993666 -0.82020416 2.41505526
O -0.50187259 -0.14579642 1.60742870
H -0.20183929 1.74597051 -0.16634249
H 1.27579606 0.77195980 -0.13948948
H -1.59002178 -0.34711955 -0.11328550
H -0.08965204 -1.32974590 -0.04914324
H 0.78864939 -1.57953148 1.76674458
