10

O -0.77474964 -0.11957951 -1.66465003
C 0.47956831 0.24360424 1.44906006
C -0.95318915 0.73165756 -0.56152603
N -0.03193668 0.17634858 0.22728728
C 0.28350303 -0.70417493 -0.90060088
H 0.08745431 0.96714768 2.15007372
H -1.79383357 1.37697200 -0.37050949
H 0.10574079 -1.75868592 -0.67745314
H 1.32510650 -0.39047086 1.67661711
H 1.27233594 -0.52281846 -1.32829843
