12

O 1.39348102 1.38093324 1.48973178
N 1.11241055 0.02587775 1.17030394
C -0.35161809 0.79420697 -0.76618921
C 0.11360939 -0.02154833 0.18857221
N -1.02030072 -0.23513646 -1.52564268
C -0.61426899 -1.18469587 -0.43698347
H -0.22541757 1.82740697 -1.05833834
H 2.28428215 1.50353454 1.13643177
H 0.78877508 -0.39248081 2.03846286
H -1.45958641 -1.57768379 0.13808337
H -2.03117467 -0.11612717 -1.56896256
H 0.00980803 -2.00428687 -0.80547015
