11

O 0.93264161 1.66996744 0.59206749
C -0.74599432 -1.51467705 -0.10966989
N 0.03599739 0.63821588 -1.15408228
C 0.63756517 1.68880414 -0.71668023
C -0.09087651 -0.17620551 -0.02797251
C 0.45826883 0.46171667 1.02597313
H -1.76350348 -1.41657349 -0.49935964
H 0.92984754 2.57210666 -1.26760130
H -0.19362504 -2.16983429 -0.78880976
H -0.79388923 -1.99101929 0.87358896
H 0.59356776 0.23749886 2.07254601
