11

O 1.3328729 1.4926151 -0.06859736
C 0.70144427 0.6191267 0.774901
N -0.023197187 0.23986061 -1.2970929
C -0.1277881 -0.14911458 0.039043866
C -1.0433526 -1.2516483 0.45560226
C 0.84014595 1.1944818 -1.2804481
H 1.2113343 1.7771455 -2.1122465
H -1.0266612 -1.389544 1.5403603
H 0.95610577 0.6886124 1.8209476
H -2.0695896 -1.0299624 0.14819326
H -0.7513143 -2.191573 -0.020663396
