11

O -1.4765384 1.629334 1.2691576
C -0.75487906 0.8430651 0.6913175
N -0.7556148 0.5593671 -0.6514828
C 0.22541231 -0.4264313 -1.0343045
C 0.87371457 -0.7440535 0.28788382
C 0.32227358 -0.027193973 1.2635837
H -1.3943402 1.0073476 -1.286822
H 0.95095795 -0.029221976 -1.7548561
H -0.23379643 -1.3179271 -1.4795574
H 1.6763296 -1.468602 0.37673435
H 0.5664806 -0.025683926 2.3183458
