11

N -0.308466 1.3176057 -1.4343561
C -0.1079575 0.35893777 -0.46559703
C -0.5393217 0.38207275 0.8693143
N 0.6346368 -0.73054624 -0.70660263
C 0.6563247 -1.3789564 0.46456566
N -0.10939461 -0.7451515 1.4805357
H -1.0711086 1.1548278 1.4094713
H -0.13813902 0.98124194 -2.3700843
H -1.1476923 1.8664869 -1.344033
H 1.1642168 -0.7946566 1.5120924
H 0.9669016 -2.4118624 0.584694
