10

O -0.935354 0.9050592 1.3908288
C 0.32504708 -1.0841315 -0.8962993
N 0.451946 -0.71978974 0.36234325
C -0.45588127 0.9704022 -0.9963508
C 0.04235495 0.69663996 0.41558048
N -0.1908927 -0.13996346 -1.7159455
H 0.9427627 1.293057 0.61648095
H 0.6095841 -2.0729856 -1.2457329
H 0.8332986 -1.2825558 1.1091803
H -1.6228654 1.4342675 0.9599151
