10

O 2.363707 -0.40028274 0.27551153
C 1.1725478 -0.19782695 0.13549094
N 0.33147854 0.5711072 0.9239658
C -0.97229314 0.5525672 0.43568647
C -0.9768962 -0.22183992 -0.6624596
N 0.32465878 -0.6798374 -0.8502165
H 0.66280824 1.0598892 1.7379794
H -1.7739463 1.0906427 0.91614455
H -1.7825004 -0.49077135 -1.3273587
H 0.65043575 -1.2836478 -1.5847439
