10

C -0.5136821 -0.6762334 1.0152998
C 0.5134652 0.6780242 -1.0147291
N -0.18429205 1.3848251 -0.13142431
C 0.6966908 -0.69865966 -0.8871788
N 0.18462162 -1.3850735 0.13051067
C -0.697759 0.6965973 0.8868025
H 0.94292235 1.2196263 -1.854939
H 1.2712476 -1.2550832 -1.6246364
H -1.2728969 1.2531239 1.6234558
H -0.9403178 -1.2171468 1.856839
