10

C -0.26678967 -0.7697459 1.0243298
C 0.39924914 0.74073774 -0.6920351
N -1.4136223 -0.24429464 0.52563065
C 0.86055386 -0.5612211 0.1918243
N 1.0172558 -0.27563503 -1.2495289
C -1.1183791 0.5675957 -0.42863345
H -1.8484199 0.9013366 -1.1623399
H 1.8341702 -0.8403192 0.60294473
H -0.25273407 -1.2835364 1.9784503
H 0.7887159 1.7650824 -0.7906424
