11

N -1.3177819 -0.22227883 0.21322978
C 0.0048779924 -0.5143357 0.5136561
C 0.43957394 -1.2093307 -0.6828816
C 0.71006924 0.6666835 0.8492825
N -1.1070197 0.25934586 -1.0966161
N -0.24282987 -0.67709595 -1.6532738
H -0.04302708 1.0801985 -0.5335891
H 1.7958404 0.6435107 0.8976838
H 1.2615569 -1.8918834 -0.83422464
H 0.24746817 1.3710535 1.541113
H -1.748728 0.49413255 0.7856203
