11

N 0.10471214 0.71332717 -1.7191099
C -0.0034631442 0.16774291 -0.43784
C 0.8896794 -0.5051735 0.37061754
C 0.1282635 -0.858956 1.5083325
N -1.119787 -0.44328076 1.4298977
N -1.1785228 0.18121813 0.23309508
H 1.0498861 0.6363996 -2.0740566
H -0.19713996 1.6792383 -1.7735032
H 1.9322305 -0.70218986 0.16963674
H 0.4591765 -1.3962488 2.3872378
H -2.0650356 0.52792275 -0.09430723
