11

N 0.14724089 1.0184373 0.8130247
C 0.5652512 0.4619391 -1.1984456
C -0.63330996 -1.3242339 0.3238259
C 3.4141525e-05 -0.020627173 -0.044079453
N 1.0110457 1.7302366 -0.98399055
N 0.7563494 2.0676749 0.23711291
H -1.6440578 -1.1830796 0.7188289
H -0.13156494 1.0895399 1.7777091
H -0.704967 -1.9599664 -0.5624056
H 0.6780191 -0.021691827 -2.1567633
H -0.0440409 -1.8582288 1.075183
