10

N 1.4785573 0.5008119 0.9224936
C 0.22470547 0.62529933 0.3773282
O -0.4462521 1.6301942 0.4413517
N -0.23081608 -0.54630417 -0.23563762
C -1.4572303 -0.641416 -0.8721106
O -1.8550333 -1.6714464 -1.3608478
H 1.8799334 1.3747349 1.2285945
H 2.12543 -0.17100815 0.539649
H 0.2889757 -1.4100815 -0.16196176
H -2.00827 0.3092156 -0.87885904
