10

N -1.2075963 -0.321772 1.4362214
C 1.145547 0.26784757 -1.2201395
O 1.0079523 0.08207668 -2.5085871
N 0.07161036 -0.08331658 -0.48009777
C 0.02756099 0.0051282165 0.9299957
O 0.98809814 0.29124105 1.5968455
H -0.70664626 -0.48218468 -1.0020809
H -1.3023435 -0.12645654 2.4222732
H 2.0092864 0.54158694 -2.0515203
H -2.0334697 -0.17415068 0.8770899
