10

N 1.61805591 -0.99036901 0.28818894
C 0.34333970 -0.92972854 -0.23124111
O -1.67549781 1.91210353 -0.11941337
N -0.22804948 0.35019298 -0.06332606
C -1.51921606 0.60662110 -0.36820952
O -0.20031071 -1.84304787 -0.79405498
H 0.37893781 1.10375940 0.25343398
H 1.87003385 -0.41188253 1.07398446
H 2.00364513 -1.92343540 0.29229195
H -2.59093824 2.12578604 -0.33165411
