10

N 0.22727634 1.7681423 0.3941454
C -0.19971347 0.47945365 0.16439408
N -1.4020739 0.050902963 0.3584577
O -1.3361903 -1.3367251 0.10286433
C -0.08023517 -1.6987556 -0.26038334
O 0.28033698 -2.8129623 -0.52187526
N 0.6455306 -0.51594657 -0.25152132
H 0.74964064 2.1748562 -0.36975282
H -0.533199 2.369024 0.6827356
H 1.6486272 -0.4779896 -0.2990645
