11

N 0.2966788 0.30600974 2.0004997
C 0.1156741 0.10140189 0.761785
C -0.63439786 0.8460441 -0.34175038
N -0.4265453 0.08528554 -1.5745491
C 0.29156968 -0.91648936 -1.2476662
N 0.6456709 -0.99228114 0.08937003
H -0.17005514 1.1603643 2.2987218
H -1.7045374 0.91399723 -0.11719042
H -0.2596245 1.8684161 -0.4595001
H 0.62484866 -1.6825274 -1.9409533
H 1.220718 -1.6902211 0.5312329
