11

N -1.3760474 -1.2613131 -0.73218626
C 0.79297036 -0.56540793 1.3512416
C 0.83380634 1.1047845 -0.2389969
N 1.0696012 0.64264745 1.0111054
C -1.3806543 0.0008623869 -0.5974265
N -0.15054199 0.67226136 -1.0046935
H -2.2768393 -1.6094762 -0.40895036
H 1.3898607 1.9809597 -0.5625075
H -0.29315105 1.1977488 -1.8591614
H 0.8383319 -0.8130611 2.4100888
H 0.5526636 -1.350006 0.6314869
