9

N -0.8071772 1.8460099 -0.1306782
C -0.11001091 0.81140834 -0.34933293
N -0.23516098 -0.30944866 0.45819843
C 0.47937822 -1.4720302 0.30040914
O 0.36398485 -2.441103 1.0096216
H -0.59775454 2.5724669 -0.8060506
H 0.6283416 0.6800869 -1.1471051
H -0.9017624 -0.26111808 1.2194334
H 1.1801612 -1.4262719 -0.55449563
