9

N 0.64102279 0.96763402 -1.30836079
C 0.02024135 0.40958643 -0.25793651
N 0.28906942 -0.78852754 0.14044096
C -0.44912347 -1.20914198 1.24318918
O -0.33165186 -2.29526890 1.75774200
H -0.72453854 1.05305071 0.22530415
H 0.41774993 1.89864591 -1.61884397
H -1.18056528 -0.46336987 1.64018792
H 1.31779550 0.42739142 -1.82172284
