11

O 0.1878826 -1.9088095 1.1302469
C 0.027036784 -0.7656132 0.41328937
C -0.87840855 -0.36635253 -0.5366449
C -0.50205266 0.9670925 -0.9068008
C 0.59792566 1.3137474 -0.17647438
N 0.9172186 0.2393256 0.63486546
H -0.5050196 -2.5233397 0.8615896
H -1.7065027 -0.9452955 -0.92038417
H -1.0037823 1.5849867 -1.6374387
H 1.1859674 2.2179866 -0.15311047
H 1.6797347 0.18627192 1.2908621
