11

O -2.203834 -1.0814742 0.6369081
C 0.15227847 -1.2964058 0.034064554
C 0.51432025 1.0003673 -0.19021556
C -1.1344085 -0.59537226 0.3315859
C 1.0852698 -0.3937258 -0.26312688
N -0.8554293 0.74279195 0.18539955
H 1.0406394 1.6105802 0.554563
H -1.5579207 1.449543 0.3209328
H 2.120025 -0.58024955 -0.5244487
H 0.24777085 -2.3726137 0.07087285
H 0.591289 1.5165592 -1.1565356
