11

O -1.57409261 -1.95297017 0.37451666
C 0.63978956 -0.95365883 0.62146704
C -0.79598339 -1.03566869 0.21236956
C 1.13493358 0.22583243 0.25098155
C 0.07720012 1.04984381 -0.43967044
N -1.06327590 0.16589473 -0.39974427
H 1.14273463 -1.76059307 1.13586036
H -1.96872254 0.37656379 -0.78333963
H 0.37260448 1.30261822 -1.46679947
H -0.10893442 1.99096124 0.09298203
H 2.14374641 0.59117683 0.40137663
