9

O 0.8158848 -1.6766133 -0.7650108
C 0.26924995 -0.563482 -0.2473587
N -0.30463395 -0.5131441 0.9423756
N -0.68751466 0.75902617 1.0251894
N -0.40973434 1.5263044 -0.006189622
C 0.21032487 0.7061689 -0.85182077
H 0.69824505 -2.3893387 -0.122517295
H -1.1654949 1.1138613 1.83737
H 0.5736731 1.0372174 -1.8120378
