10

C -0.37353393 -0.3680471 -0.37142724
O 1.0168828 1.0498031 0.96498394
C -0.2928753 0.789762 0.48692796
O -1.6038394 -0.72006476 -0.47812325
N 0.6330096 -1.044627 -0.906117
H -1.671818 0.059733134 0.4555005
H -0.70231575 1.667625 -0.031790435
H 0.49309027 -1.9496799 -1.3265226
H 1.56667 -0.7186878 -0.7026672
H 0.93473005 1.2341832 1.9092351
