10

C -0.09994206 0.48924792 -0.06716785
O 0.06513061 1.78215126 -0.44503530
C 0.85764142 -0.44008916 -0.12259686
O 0.53243462 -1.77317696 0.12681270
N -1.37332889 0.26027601 0.42580942
H -2.08762875 0.75896693 -0.08870425
H 0.91143375 1.86611890 -0.90023534
H 1.87643499 -0.20997939 -0.42415520
H -1.55684708 -0.73147122 0.49334170
H 0.87467159 -2.00204407 1.00193114
