10

C 0.5949513 1.386354 -0.58299565
O -0.40273347 0.38473055 -0.386819
C -0.027830949 -0.6253514 0.43185148
O 1.0542871 -0.7141083 0.96046466
N -1.0629373 -1.5035785 0.5836651
H 0.8517415 1.8659014 0.36573374
H 0.14745802 2.1096704 -1.2659317
H 1.4984342 0.95356846 -1.0213064
H -1.8281823 -1.4632347 -0.07035048
H -0.8251879 -2.3939517 0.9856884
