10

O -0.41923797 -0.3239561 1.2724289
C 0.8091578 -0.8315168 0.23405057
C -0.6277095 1.0240421 -0.8272953
O -1.2626306 1.1869255 -1.8382006
C -0.51303166 -0.32914472 -0.17831236
O 1.6899126 0.028241344 0.63399374
H 0.9956653 -1.9075872 0.25388288
H -1.2588894 -1.0348972 -0.54089624
H -0.08387574 1.8507873 -0.32745036
H 0.6706392 0.33710602 1.3177987
