11

N 2.2594311 -0.64485425 0.722208
C 1.1071551 -0.31914192 0.3404518
O 0.5098065 -0.9020373 -0.7237522
C -0.85552025 -0.49759582 -0.7555992
C -0.83628345 0.80484945 0.038282756
O 0.2857486 0.61904126 0.8953884
H 2.5473585 -0.06385676 1.5028052
H -1.4724416 -1.2650108 -0.27480492
H -1.1592956 -0.3733396 -1.7967466
H -0.6611996 1.6781231 -0.60048705
H -1.7247593 0.96382266 0.6522535
