11

N 0.73815893 -0.35049384 -2.31925275
C -0.02864104 -0.42308518 1.08109156
O 0.21132040 -1.09339530 -0.15491544
C 0.36294615 -0.15737455 -1.13539912
C -0.55976916 0.92714554 0.61501524
O 0.03948359 1.07083118 -0.67094927
H 0.91214743 -0.33332531 1.63451093
H -0.74615184 -1.00471128 1.66413989
H 0.96974346 -1.32803460 -2.46051709
H -0.24888385 1.76535702 1.24070566
H -1.65035408 0.92708635 0.50557008
