9

N 0.39419374 -0.55785024 -0.50786155
C -0.3461295 -0.4855937 -1.6872537
N 0.5682698 0.2704706 1.6301867
C -0.03244837 0.21588111 0.43235332
O -0.097008295 -1.1329362 -2.6735554
H -1.2093801 0.22428723 -1.6743861
H 1.3817643 -0.29813156 1.7988788
H -0.90117973 0.87738115 0.32578987
H 0.2419181 0.88649154 2.3558478
