9

N 0.82804236 -0.10893392 0.16428079
C 1.39498846 -0.16793476 -1.10825855
N -1.15350332 0.13042456 1.30614437
C -0.45231973 0.05030973 0.16571887
O 2.57539994 -0.31141789 -1.30812367
H 0.67981109 -0.07250793 -1.96190553
H -1.05403717 0.13298709 -0.74791827
H -0.66835001 0.07702299 2.18666313
H -2.15003150 0.27005013 1.30339862
