11

N -0.00889422 -0.16910786 1.13325462
C -0.29721835 1.03242687 0.38736213
C 0.31599592 -1.24225705 0.33504910
C 0.25012611 -0.71566781 -1.06192404
C -0.09493421 0.56953233 -1.03379970
O 0.59181661 -2.36344156 0.70783928
H 0.38268159 1.85315667 0.64576831
H -0.04910791 -0.24726129 2.13569517
H -1.32383043 1.38535469 0.55348561
H -0.22712507 1.23489355 -1.87993105
H 0.46049026 -1.33762867 -1.92279905
