11

N 1.59570988 -0.63810091 0.26923681
C 0.22859182 -0.63938040 -0.14149819
C -0.92179645 0.99218905 -1.37316498
C -1.34351122 1.03441937 0.05463122
C -0.70048120 0.09710923 0.76283207
O -0.00773507 0.03742126 -1.42491280
H 2.16921927 -1.13443893 -0.40637341
H -0.09675863 -1.67292677 -0.31030565
H -2.07615547 1.74302744 0.42342061
H -0.78481786 -0.13538969 1.81797672
H 1.93773509 0.31606984 0.32815716
