11

C 0.13639706 -0.20816009 -1.3162138
C -1.4908974 0.06299996 0.55304873
C 0.87512803 0.8522412 0.94460195
O 0.61658305 -0.8912813 1.0384297
C -0.07561756 0.027665455 0.16172494
N -2.6115577 0.13561304 0.822728
H 1.2083397 -0.23416254 -1.5213765
H 1.5828437 -0.4151948 0.9645491
H 0.3942339 1.2102224 1.8651984
H -0.32456872 -1.1513911 -1.625555
H -0.31088397 0.6114478 -1.8871359
