11

N -0.50665845 0.92017780 -0.30901571
C 0.94427694 -0.63592442 0.53275890
O -0.36638587 -1.16693313 0.54196209
C 0.80836515 0.79764266 0.03430151
C -1.19660262 -0.35204569 -0.25791882
O 1.66879434 1.64399342 -0.05090211
H -1.31814661 -0.77844399 -1.26634202
H 1.60689210 -1.19288895 -0.14402879
H -0.82912746 1.70877651 -0.84723533
H 1.36446668 -0.66844693 1.54207422
H -2.17587427 -0.27590704 0.22434626
