11

N -0.17843893 1.0535488 -0.23898754
C 0.97703356 0.36026087 -0.45440298
O -0.5096298 -0.8944972 0.8543107
C 0.7419661 -0.99395686 0.20353621
C -1.2109581 0.21382035 0.33192992
O 1.960606 0.7430715 -1.0459678
H -0.3665782 1.9112122 -0.7335294
H -1.9357767 -0.101207264 -0.43546918
H -1.7419773 0.7059798 1.1523855
H 1.5227572 -1.2223889 0.934644
H 0.740996 -1.7758437 -0.5684495
