11

N 0.99598956 0.20207153 -0.76014125
C -1.2038572 -0.25088623 -0.17976
O -0.86213267 1.1150054 0.11589725
C 0.16838029 -0.9164928 0.092606984
C 0.47041273 1.0587852 0.15952961
O 0.5357026 -2.0713847 0.11007251
H 0.39282468 -0.15969446 1.2280494
H -1.4346783 -0.38273594 -1.2394975
H 0.9787568 1.9092151 0.61333716
H 1.9871352 0.047005218 -0.60762775
H -2.0285337 -0.550888 0.46753374
