11

N 0.9484332 1.1453001 1.1208901
C 0.118412755 0.32344928 0.3583859
C -1.2034907 0.12860838 0.31315497
O -1.5105447 -0.73299265 -0.7380581
C -0.34873974 -1.0925838 -1.3606539
O -0.27733395 -1.807689 -2.3238177
N 0.6647994 -0.47065228 -0.6539343
H 1.6145439 0.6217697 1.6780696
H 0.42108062 1.7618127 1.7240626
H -2.0249686 0.50028706 0.903558
H 1.5978078 -0.37730947 -1.0216573
