11

N -0.8267612 -0.7150223 1.4992309
C 0.3415942 0.88256574 -1.4039644
C 0.49133596 -1.0780993 -0.23741184
O 0.68758994 -0.4044991 -1.5188102
C -0.19826943 -0.0911046 0.53934246
O 0.3655504 1.7186857 -2.2617698
N -0.13187394 1.1132941 -0.06615101
H -0.41802645 -1.7521694 0.78297466
H -0.6906514 1.9310654 0.12311229
H 1.4776422 -1.3159939 0.16860874
H -1.0981302 -0.28872272 2.3748386
