10

O 0.68550026 1.3595597 -0.37365347
C -0.14946699 -0.091538794 1.1461645
C 0.007968946 -0.7341429 -1.3932503
O 0.2335965 0.8528058 1.9167236
C 0.19296938 0.1746306 -0.23614804
O -0.4914958 -1.8286194 -1.2506282
H -1.1870114 0.1319396 0.41056377
H -0.37873927 -1.1186875 1.4637372
H 0.71990347 1.5889493 0.6737918
H 0.3667749 -0.33489642 -2.357301
