10

O 1.6004212 -0.80550563 0.933165
C 0.6642794 -0.24947497 0.4095969
C -0.15599687 -0.8507378 -0.7249541
O -1.5200084 -0.5551495 -0.6710637
C 0.32760084 1.1543068 0.8870466
O -0.5413131 1.8225441 0.36256033
H 0.320806 -0.5116541 -1.6602297
H -0.04729628 -1.9384121 -0.6722381
H -1.5987209 0.40716448 -0.584803
H 0.9502284 1.5269186 1.7209198
