10

O 1.2518461 -1.3860085 0.98975813
C 0.35812414 -0.9480194 0.015636569
C -0.020318866 0.4977791 0.22249857
O 0.42035884 1.1469774 1.1460419
C -0.9807132 1.1524528 -0.7603138
O -1.4455957 0.5560644 -1.6956962
H 1.4046425 -0.63998955 1.5875232
H 0.7832615 -1.0477732 -0.9947757
H -0.56758475 -1.5453598 0.020589316
H -1.2040205 2.2138765 -0.53126204
