9

N 2.0892863 1.3754448 -1.5268383
C -0.037090484 0.8282351 -0.47868332
C -0.08665304 -0.40146738 0.27136642
N -1.084014 -0.94147176 0.9266615
N 1.1087792 1.1228812 -1.0433546
O 0.9262974 -1.1861969 0.4021903
H -0.85307086 1.5220913 -0.61867225
H -2.018553 -0.56599754 1.0030525
H -0.04498125 -1.7535187 1.0642779
