10

O -0.95219857 1.8533568 1.0005431
C -0.2960495 1.1057359 0.026707327
C -0.13760991 -0.3376953 0.46556792
O -0.5652718 -0.70721924 1.537938
C 0.5399889 -1.2327356 -0.45869914
C 1.1026245 -1.9464488 -1.2476726
H -1.1521022 1.2368478 1.7241493
H 0.7066548 1.5093573 -0.18414699
H -0.84616536 1.1108227 -0.9264961
H 1.6001292 -2.592022 -1.9378909
