10

O 0.92158628 0.72825385 -0.92808811
C -1.77168889 0.97074975 1.32517403
C -0.79266417 0.52270719 0.79535748
O 1.26878517 -0.56500936 1.02286245
C 0.37332850 -0.03038569 0.12269529
C 0.27609269 -0.50708403 -1.26267370
H -2.64135118 1.37706995 1.79346030
H 2.07692475 -0.78559917 0.53727225
H -0.65606956 -0.40844552 -1.81505907
H 0.94505645 -1.30225739 -1.59100099
