10

O 0.7707013 0.3452571 -1.8215314
C 1.1361945 -0.20737055 -0.6258737
C -0.77487016 0.32817224 1.0212195
O -1.1078144 -0.8421509 -0.9756634
C -0.27663165 -0.2843339 -0.1646095
C -1.1251999 0.84773374 2.049822
H -0.51672775 -0.7267877 -1.8182408
H 1.6198032 -1.2048081 -0.66413504
H -1.453465 1.3042885 2.958413
H 1.7280098 0.43999967 0.04059946
