12

N 0.8578811 -1.7389419 0.56451654
C 0.26750752 -0.54312944 0.16873387
C 0.9310682 0.39452994 -0.6240335
N 0.34793243 1.5071692 -1.0607456
C -0.9208929 1.6966567 -0.699045
N -1.6517564 0.87964576 0.05746442
C -1.0556821 -0.2267645 0.48519236
H 1.8655154 -1.7383662 0.60155064
H 0.44735846 -2.176708 1.3770268
H 1.9676741 0.2384912 -0.9196345
H -1.4040684 2.6035883 -1.0543935
H -1.6525371 -0.8961711 1.1033678
