12

N 0.43680432 -1.96926935 0.90419176
C 1.00986956 -0.92185019 0.03377066
C 0.29998683 0.19484163 -0.15807228
N 0.80802353 1.38772277 -0.68488597
C -1.12919427 0.31994835 0.38457763
N -1.74414451 -1.06664165 0.43415569
C -0.76721300 -1.73094079 0.74908534
H 2.02796139 -1.08276751 -0.29801621
H -1.75235793 0.89238110 -0.31012950
H 1.74427017 1.29998138 -1.05477764
H 0.19972273 1.83612015 -1.35238344
H -1.13372850 0.84047406 1.35248429
