12

N -0.4539044 -0.45155856 1.917189
C -0.13995643 -0.13464977 0.5996513
C -0.9268162 0.7223772 -0.1752494
N -0.5953848 1.0826687 -1.4116629
C 0.53972965 0.5793417 -1.8940809
N 1.3651834 -0.24868864 -1.2595787
C 1.0198884 -0.5978857 -0.022480007
H -1.4309852 -0.37937075 2.1595054
H -0.035841808 -1.3017582 2.2665915
H -1.8545641 1.1316428 0.22258922
H 0.8183987 0.87225896 -2.9038033
H 1.6942528 -1.2743778 0.5013288
