11

N -0.97727484 -1.7078397 0.59481305
C -0.34764373 -0.53942275 0.15161397
C 0.9671757 -0.16264105 0.2675664
N 1.0416758 1.0498202 -0.39957744
C -0.19516791 1.3242007 -0.87610704
N -1.060504 0.39257485 -0.55855495
H -1.9801775 -1.6053073 0.5126777
H -0.7323354 -1.96324 1.5416895
H 1.8294463 -0.621345 0.7239658
H 1.8666458 1.6154927 -0.5116568
H -0.41184053 2.2177074 -1.4464302
