11

N 0.35222673 -1.60725584 0.87833833
C 0.06280674 -0.41639825 0.20297384
C 0.84255323 0.65217868 -0.18788261
N -1.27085199 0.99447119 -0.95009663
C -0.04541937 1.48328418 -0.90583593
N -1.18336061 -0.16726226 -0.26840409
H -1.98506202 -0.77462077 -0.22230680
H -0.17566649 -1.72175993 1.73542479
H 1.34101557 -1.68061348 1.08255159
H 1.89066968 0.80930720 0.02089673
H 0.17108820 2.42866933 -1.38565923
