10

O -0.28287435 -1.550601 0.15811203
C 0.8308054 -0.64314044 0.1352519
C 0.45295832 0.39956918 -0.9064637
C -0.7099084 0.87604463 -0.016743278
O 1.0067366 0.83351964 -1.8751992
C -0.16957824 -0.035055563 1.0977874
H -1.7363319 0.6767323 -0.33249176
H -0.6054253 1.9376478 0.23455021
H 1.8068868 -1.089645 0.30877358
H -0.5932689 -1.4050719 1.1964228
