11

C -2.04486713 -0.39115376 -0.02801048
N -0.92807339 -1.33847806 0.41116490
C 1.77684563 0.18784900 0.10010847
C -0.62371807 -0.19740477 -0.02906829
N 0.44336815 0.56931963 -0.33240887
H -2.57333333 -0.64412569 -0.94823963
H -2.66966582 0.04238284 0.75478385
H 1.98287023 0.48343509 1.13577110
H 0.25446632 1.53616612 -0.52817820
H 2.51787570 0.65005532 -0.55705100
H 1.86423167 -0.89804575 0.02112805
