11

C -1.1447716 -0.3126087 0.70556664
N -0.060043324 0.6578372 0.6380394
C 1.1029392 0.1828015 -0.08207343
C 0.8334984 -0.17108528 -1.4982897
N 0.55746216 -0.41740328 -2.592242
H -1.5150965 -0.6381161 -0.2783991
H -1.974064 0.12804127 1.2656596
H -0.8015692 -1.1963259 1.2552243
H -0.38843897 1.5210042 0.22079875
H 1.884524 0.9493486 -0.05678946
H 1.5055598 -0.70349354 0.4225049
