12

O -0.43380853 1.02057556 1.63798273
N -0.38034452 1.88681059 0.44789380
C -0.18572668 0.48539089 0.39920088
C 1.04537165 -0.30519035 -0.04043768
N 0.19135539 -0.97004331 -1.04907125
C -1.04620500 -0.49061681 -0.38388064
H 1.88715468 0.26248417 -0.45275387
H 0.54176678 2.33271242 0.50952486
H 1.41231117 -0.95608951 0.76541708
H -1.52142887 -1.22931852 0.27606026
H -1.79709933 -0.05527062 -1.05069999
H 0.28665306 -1.98144440 -1.05923629
