12

N -0.86307317 1.5464742 1.2070862
C 0.17146383 0.6477315 0.76359075
N -0.25178713 -0.7665472 0.554636
C 0.8499902 1.158774 -0.50969326
O 0.12559146 -2.1689954 -1.2955041
C 0.18819754 -1.0383039 -0.5944516
N 0.84836406 0.052181013 -1.2384756
H -0.36235595 -2.8087974 -0.7599972
H -1.5745476 1.622655 0.4890029
H 1.2201138 -0.02719056 -2.1746774
H -1.31139 1.1543332 2.0280929
H 0.95943314 0.6276851 1.5303905
