10

C -0.44464174 -0.7980184 -1.0337714
N -1.246524 0.38427016 -0.74524283
N 2.2201807 -0.09015603 0.7216802
C 0.04166808 0.9040529 1.1642932
N 1.1995509 0.35616952 0.92051893
N -1.0073351 1.089176 0.24274728
H -1.008031 -1.4011707 -1.7466187
H -0.020278359 1.4622176 2.090233
H 0.5148837 -0.521113 -1.4868919
H -0.24947314 -1.3854282 -0.12694752
