10

C 0.2600134 -0.6232602 -1.4355956
N 0.112314895 -0.06803544 -0.10607057
N -1.0268458 0.4120493 0.3631433
C -0.66474795 0.7835514 1.5766208
N 0.63748145 0.5396665 1.8315899
N 1.1132077 -0.0020701427 0.74709404
H -0.3816183 -1.500301 -1.5409715
H 1.3055339 -0.9037499 -1.5515299
H -0.017287051 0.12743874 -2.1764374
H -1.3380523 1.2347107 2.2921572
