10

C 0.06081660 -0.63533474 -1.22305929
N -1.23764369 -0.09090800 -0.84666781
N -1.42725485 0.37869487 0.28193698
C -0.46777126 0.50045299 1.30589564
N 0.81795161 0.65088030 1.14910582
N 1.93220426 0.81048722 1.03336823
H -0.09254855 -1.24085793 -2.11702363
H 0.48518457 -1.25786825 -0.42441390
H 0.77028608 0.16720326 -1.45815428
H -0.84122483 0.71725024 2.29901249
