17

C -1.7860818 0.50511223 1.5936397
N 1.152687 -0.46732593 -0.15527505
C -0.16471022 1.0715865 -2.094028
O -0.56400406 -0.14304745 1.2590476
N -0.75609535 0.81728536 -0.7975198
C -0.09472163 0.105434254 0.028118707
C 1.6674062 -1.5024712 0.7220848
H -1.6776266 1.5924168 1.5458015
H 1.6121378 -1.1661099 1.7594818
H 1.4210874 -0.53717285 -1.1213084
H -2.004311 0.18674895 2.6148703
H -0.8424949 1.7133414 -2.6632586
H -2.5889628 0.20469545 0.9158037
H -0.019485617 0.15242125 -2.6849866
H 0.8045978 1.5895536 -2.02912
H 1.1224923 -2.4510798 0.6339775
H 2.7180858 -1.6713884 0.4726702
