11

C -0.41624302 0.08456962 1.7566742
C 0.08727635 -0.092726655 -0.3306962
N -0.08025181 -0.83450377 0.6686363
C 0.43775436 -0.4001784 -1.7401235
C -0.41018865 1.4907485 1.2133361
O -0.09541924 1.303424 -0.051810365
H 0.30253407 0.0007162626 2.5832155
H -1.4010333 -0.15047185 2.1815963
H 0.55577445 -1.4753563 -1.8610606
H 1.3677857 0.108126014 -2.011243
H -0.34798893 -0.03434726 -2.4085248
