11

C -1.7689406 -0.13980184 -0.04963135
C -1.4874762 1.2566605 -0.11182093
N -0.6177122 -0.93126297 0.114570685
C 1.7876164 -0.28273728 0.25785756
C 0.32614857 -0.05633002 0.10431636
O -0.085874826 1.2208364 -0.08798778
H -1.84972 0.492431 -1.1523958
H -2.7588162 -0.5707458 0.054794557
H 2.2991736 -0.032766078 -0.6776797
H 1.9727796 -1.3260715 0.5064461
H 2.1828222 0.36978766 1.0415306
