9

O 1.0073137 -0.94704866 -1.5002023
C 0.30959675 -0.3501044 -0.5194263
C -0.94129515 -0.62232625 -0.07755722
O -1.1967309 0.266469 0.9388993
C -0.09012425 1.005229 1.0366118
N 0.84551066 0.6926615 0.1999963
H 1.8633591 -0.49909398 -1.5430672
H -1.718002 -1.3254255 -0.32583982
H -0.07962801 1.779639 1.7905854
