9

O 1.1524701 0.22176157 1.5062906
C 0.2827038 0.055992167 0.4988385
C -0.5117827 -0.6371043 -1.4715066
O -1.4436934 0.14231615 -0.8592912
C -0.9813107 0.50958973 0.37347957
N 0.57410973 -0.7036374 -0.6299689
H -1.6512389 1.0433758 1.0289502
H 1.9055119 -0.36405927 1.3496257
H 0.67323023 -0.26823446 -1.7964178
