14

C -1.5421615 0.11538345 -1.8395836
N 0.95139444 0.29466859 0.99237955
C 0.008276938 0.2897859 -0.0064616143
O -0.2534505 -0.7948221 -0.612627
N -0.6506403 1.3372868 -0.42172334
C 1.4593332 -0.9579678 1.5200027
H -1.5670445 1.0344648 -2.4152837
H 2.4067028 -0.777745 2.0354693
H -1.2267756 -0.7315687 -2.4436553
H 1.6303345 -1.6429493 0.68681383
H 0.90147114 1.0697434 1.6344991
H -0.44003737 2.2722635 -0.08569167
H -2.4384377 -0.071232915 -1.2631649
H 0.7610346 -1.4373102 2.2190273
