9

O 0.07324766 1.6415793 -0.807202
C 0.7436797 -0.58933765 -0.8949529
C -1.2650435 -0.083467364 1.9483036
C 0.09160112 0.37012258 -0.26440793
C -0.6497358 0.09497982 0.9276065
N 1.4218321 -1.4565816 -1.4324051
H 0.4603593 2.2378821 -0.15024048
H -1.8164397 -0.2488913 2.848091
H 0.94049925 -1.966286 -2.1747923
