9

O -1.31778169 1.01448780 -0.76549909
C -0.49604003 -0.75663460 0.68780805
C -0.74672431 -1.63154029 1.47772385
C 0.97279591 0.60568648 -0.62300168
C -0.25318280 0.31456266 -0.22856478
N 2.11406238 0.93594869 -0.92182493
H -0.96429224 -2.41411562 2.17145309
H -1.78039415 1.43943572 -0.02899392
H 2.47155703 0.49216909 -1.76910050
