10

O 0.91850471 -1.00208513 -1.57043219
C 0.39267680 0.64579635 0.41682282
C 0.20749769 -0.30290196 -0.67123959
O -0.85797150 -0.98168870 -0.08059349
C -0.77747077 -0.07463710 1.06594695
O -0.09604135 1.04073356 -0.90100074
H -0.51688453 -0.62713179 1.97202546
H 1.21886427 1.19763475 0.84449683
H 1.21091563 -0.39312918 -2.26044278
H -1.70009125 0.49740934 1.18441643
