12

N 0.08178456 1.7287334 -0.021314457
C -0.7078544 -1.0983703 -0.591694
O -0.062429056 0.95715284 2.151319
N 0.24331103 -0.5221208 0.4012808
C 0.60848635 -0.67009115 -1.1006107
C 0.0625425 0.8163169 0.9621727
H 1.3046894 -1.5177605 -1.1283406
H 0.5551149 -1.158884 1.1277182
H -1.5776529 -0.46350983 -0.7606428
H 0.06710089 2.705172 0.225017
H -0.971362 -2.1294112 -0.33842692
H 0.39626887 1.3527727 -0.92647815
