12

N -0.61495763 -1.7895186 0.70120156
C 0.20364189 1.5970129 -0.36511016
O 0.9693591 -0.3412662 1.4980323
N -0.5268009 0.35079077 -0.1444983
C 0.039065853 -0.5963861 0.7669411
C 0.5542169 0.7108315 -1.5103103
H -0.45599994 2.4491258 -0.5287294
H -1.5083292 -1.858181 0.24069558
H -0.37113392 -2.481813 1.3890392
H 0.94855785 1.7554432 0.4105265
H -0.6934368 0.059640758 -1.2233392
H 1.4558169 0.14431986 -1.2344489
