12

N 0.16282922 -0.36024236 0.58012819
C 0.02896726 1.09522311 0.62905353
O -0.20117333 1.64213602 1.67664274
N 0.21314540 1.61099176 -0.59576574
C 0.66149009 -1.03059569 -0.72864607
C -0.72688479 -1.20814515 -0.26381966
H -1.09070061 -2.07805718 0.29072241
H 0.35309912 -0.71836661 1.51068969
H 0.24776702 2.61230137 -0.69827202
H 0.58580658 0.93452869 -1.27627254
H -1.52572838 -0.63890251 -0.73916445
H 1.29138233 -1.86087137 -0.38529636
