10

N 0.60171896 -0.81241333 1.5047705
C 0.013645478 0.16949336 0.74381316
O -0.4043839 1.2164251 1.1884589
N -0.09695765 -0.1732089 -0.605755
C -0.6391595 0.6744829 -1.5591862
O -0.7659627 0.34552336 -2.7131271
H 0.83285403 -0.5160793 2.4412012
H 1.2511834 -1.4537408 1.0766191
H 0.13458018 -1.1005932 -0.93125474
H -0.9275181 1.6501108 -1.1455396
