10

O -0.5925096 0.37252235 -1.8817536
C 0.39883652 -0.817903 0.2493827
N -0.7884772 0.9262654 0.5428172
C -0.38877922 -0.041703943 1.2827897
C -0.09042324 0.27353248 -0.63276696
N 1.2996765 0.15769966 -0.42119926
H 1.6831884 0.85585994 0.21416108
H 0.5804734 -1.8778284 0.12218873
H -0.5471325 -0.1508406 2.3538203
H -1.5548528 0.30239594 -1.82944
