12

O -0.6620594 1.4909489 -0.813782
C 0.18560776 0.41786647 -1.1332632
C 0.48085037 -0.40138948 0.121568665
O 1.0376438 0.4541683 1.0853921
C -0.79188854 -1.0155889 0.6657806
O -1.1336851 -0.8255235 1.8095255
H -0.2608153 1.915301 -0.04020647
H 1.1404777 0.75641537 -1.5592606
H -0.3256747 -0.19666515 -1.8835208
H 1.1678492 -1.2268516 -0.13085991
H 0.5348732 0.2903098 1.9006308
H -1.3731792 -1.658991 -0.022004865
