12

O -0.25253535 1.70204913 0.12449033
C 0.89295400 0.75152279 -0.73483406
C 0.54783158 -0.56623226 -0.06269535
O 0.58331614 -0.35710382 1.34673534
C -0.81242270 -1.14227459 -0.40467420
O -1.66773477 -1.33468239 0.43577056
H 0.25912452 2.51479159 0.20331686
H 0.39945595 0.75348514 -1.72257136
H -0.99620629 -1.35030496 -1.47606434
H 1.31565021 -1.28237235 -0.39639108
H -0.12731437 1.21419242 0.98591051
H -0.14211912 -0.90307049 1.70100660
