10

O 0.45664639 -1.55695665 -0.82973005
C -0.04956278 -0.77477215 0.18098895
C -0.88607379 0.48637031 -0.16149627
O -0.57617190 1.03329354 1.13364780
C 0.65283841 0.55556976 0.55580039
O 0.30322336 1.08139583 -0.75564312
H 0.75955857 -0.93967099 -1.51644041
H -0.40467485 -1.40146348 0.99897045
H -1.85873527 0.67854657 -0.61152097
H 1.60295145 0.83768719 1.00542345
