10

O 1.7946417 0.038379483 -0.012255222
C -0.5284028 0.7788434 0.3554731
C -0.55188173 -0.80219835 -0.47634575
O -0.48058224 1.0249033 -0.9436462
C 0.54844266 -0.3043878 0.45500582
O -1.5919178 -0.5211128 0.25097567
H 0.6271894 -0.8944034 1.3694729
H -0.57524216 -1.4766282 -1.3341014
H 1.6202347 0.64097273 -0.75604117
H -0.86248213 1.5156317 1.0914623
