10

C -0.08419109 -0.8013629 -0.14110652
C -0.117597066 0.9129746 0.68918806
N 1.2582237 0.94707376 0.5219735
C -1.005601 0.11885927 -0.8062302
N -0.8888213 1.3471633 -0.38375238
C 1.2556673 -0.29930997 0.12839045
H 2.1703568 -0.8803325 0.020256946
H -1.7178866 -0.1637083 -1.5802101
H -0.5738317 0.6866155 1.6544974
H -0.29631856 -1.8679726 -0.10300716
