9

O -0.73231775 0.016244115 2.8178976
C 0.5228839 0.42616445 -0.50283605
N 0.42192325 0.74478406 0.87961
C -0.21224765 0.30522072 1.8163823
C -0.3909467 -0.7020885 -0.93821484
O -1.124367 -1.281092 -0.18389957
H 1.5531107 0.14276493 -0.75900173
H -0.33264264 -0.9600032 -2.0125594
H 0.2946037 1.3080055 -1.1173782
