11

O 1.7913071 -1.1889623 1.4021248
C -0.35376176 -0.24709548 0.6164024
C 0.8977222 -0.9627738 0.40023175
N -0.96994436 0.40366513 -0.45694527
C -0.71615523 1.5739688 -0.9781286
O -0.31497416 -1.6724361 0.40658814
H 0.18956597 2.0848997 -0.6765796
H -1.4305966 2.033356 -1.6478965
H -1.8350738 -0.051396742 -0.73929065
H 1.4136261 -0.95251137 -0.5603537
H 1.3282846 -1.0207132 2.2338471
