9

O 1.0589181 -0.9851948 -1.9464242
C 0.0012337108 2.3309796 2.2444887
C -0.2676567 -0.1909444 -0.13567992
C -0.49378443 0.07447316 1.1262589
C -0.06179355 -0.47347623 -1.3971622
N -0.21497451 1.3076923 1.7000291
H 1.7344444 -1.0979416 -1.2610991
H -0.92150503 -0.6504292 1.8139521
H -0.83488184 -0.31515893 -2.1443634
