11

N -0.50738716 0.05453601 1.8134103
C 1.1578529 0.44059047 -0.9092552
C -1.3635008 -0.5099821 -0.09376574
O 0.03178383 1.1734921 -0.56140906
C -0.17731991 -0.04758585 0.5353238
O 1.0245264 -0.58808917 0.07980898
H -2.2880018 0.0047194446 0.14258581
H 2.095372 0.9876455 -0.75969994
H 1.1129372 0.030273046 -1.927056
H -1.3828424 -1.3982947 -0.72446346
H 0.29658014 -0.1473048 2.4045205
