11

N -0.82576964 -1.25329450 -0.54958680
C 1.62099001 0.68794743 0.10097998
C -0.11422565 -0.11045503 -0.14802052
O 0.76623404 -0.07977609 0.94535544
C -1.57073542 -0.06733497 -0.03432507
O 0.72160698 0.60612638 -1.00107105
H -2.17903228 0.42820239 -0.78489424
H -0.75836119 -2.00107303 0.13084486
H 2.57371211 0.18946942 -0.09124565
H -1.98946996 -0.11151791 0.97023436
H 1.75505073 1.71170562 0.46172846
