11

O 2.3966453 0.7440864 0.31191045
C -1.2015666 0.08366917 0.17306164
C 1.4253633 0.14677323 0.7052536
C -0.20427144 0.43802568 -1.4606863
N -1.4609603 0.52919227 -1.2334477
C 0.24397819 -0.11111029 -0.1330737
N -0.67977726 -1.2482632 0.12907393
H 0.33634612 0.6936589 -2.3661726
H -0.53966314 -1.566552 1.0892931
H -1.6619148 0.54050493 1.0427245
H 1.3458208 -0.24998502 1.7420632
