9

O 1.0064095 -0.94584936 -1.4997293
C 0.3089865 -0.35052082 -0.52046627
C -0.9418464 -0.6228574 -0.08053679
O -1.1971052 0.2669136 0.9397176
C -0.09055161 1.003965 1.0387573
N 0.84735256 0.69225436 0.20124632
H 1.8626724 -0.4982014 -1.5413504
H -1.7199482 -1.3243443 -0.33064392
H -0.075969465 1.7786403 1.7930055
