9

O -0.23527177 -0.16081084 2.0422287
C -0.3629059 0.044310678 0.78672326
C 0.39551276 -0.86549115 -0.010513959
O 0.5471847 -0.12642081 -1.234955
C -0.1619172 0.9750583 -1.045461
N -0.7740473 1.1527623 0.095505364
H 0.7241918 -0.83133787 1.4343098
H -0.16747935 1.6862073 -1.866047
H 0.034732256 -1.8742777 -0.20179021
