9

C 0.22692733 0.4807105 -1.6088479
C -0.012182097 -1.0585786 1.97358
C 0.14492038 -0.040053748 -0.40118915
C 0.068121724 -0.54311347 0.7676482
O -0.31902745 1.6549044 -2.0156894
H -0.5234093 -0.529839 2.7711747
H -0.77460456 2.0637572 -1.271712
H 0.42955893 -2.0235133 2.2043228
H 0.75969505 -0.00427367 -2.4192872
