10

O -0.67352724 0.27397707 -1.1687458
C 0.35255983 0.051563255 -0.34606788
N -1.8741393 0.05925809 -0.4821559
C -0.09724639 -0.306333 0.89395857
C -1.5078087 -0.2801458 0.71955955
N 1.603114 0.16406283 -0.89870626
H -2.2710118 -0.5051992 1.4544431
H 0.4726132 -0.55042285 1.775726
H 2.341012 0.3354884 -0.23300071
H 1.6544344 0.7577512 -1.7150104
