10

O 1.02975325 -0.66854001 0.62235975
C 0.22323461 -0.26108510 -0.35877719
N 0.72152084 0.02834139 1.79638204
C -0.64072955 0.69452080 0.09780169
C -0.25635477 0.81867285 1.46075038
N 0.44888223 -0.81512373 -1.59331168
H -1.41195673 1.22160234 -0.43999687
H -0.67770127 1.47632511 2.21117858
H 0.90395665 -1.71738977 -1.57671670
H -0.34060527 -0.77732375 -2.21966998
