10

O 2.3651938 -0.39516574 0.27339354
C 1.1751708 -0.19537628 0.13546047
N 0.33351853 0.5722487 0.9222715
C -0.97458833 0.5512788 0.4346075
C -0.9780516 -0.22358124 -0.6611191
N 0.32742095 -0.6805305 -0.8481397
H 0.6606171 1.0593054 1.7378763
H -1.7760544 1.0903739 0.9142221
H -1.7822806 -0.49322382 -1.3252594
H 0.64905375 -1.2853291 -1.5833132
