10

O -1.2482594 1.2983323 -0.8419186
C 0.77603954 -0.093110114 -0.4377796
C -0.7128362 0.075925626 -0.45337766
C 1.0633584 -0.63924754 0.7400052
N -1.1167042 -0.33841863 0.91331124
N -0.12632519 -0.77667737 1.5364509
H -0.9228258 1.9820238 -0.24163267
H 1.438027 0.13820156 -1.2609314
H 2.005999 -0.9655411 1.1600081
H -1.1564732 -0.6814886 -1.1141354
