10

O -0.24115841 -0.17482242 2.026084
C -0.10721262 -0.03590769 0.69007444
C 0.70262027 -0.6150116 -0.2595079
C 0.2933465 0.008868583 -1.4644158
N -0.67364 0.8880353 -1.2775223
N -0.9047112 0.84579414 0.052737374
H 0.3948711 -0.8304669 2.336507
H 1.4652677 -1.3645208 -0.10995515
H 0.67775816 -0.15886696 -2.4611568
H -1.6071415 1.4368984 0.4671547
