10

O -0.12250963 -1.1840398 -1.0823699
C -0.066095665 -0.4800968 0.11478984
C -1.3109812 0.37788212 0.33071184
O -1.4839965 1.013731 1.3405682
C 1.1420408 0.44011122 0.14723879
O 1.9276856 0.45277622 -0.77045244
H 0.6749023 -0.9315478 -1.5775601
H 0.0179973 -1.1575572 0.9814572
H -2.0216813 0.37914583 -0.5174691
H 1.2426379 1.0895956 1.0330856
