10

O -0.69472187 -1.52582705 -0.77560134
C 0.26148442 0.78388429 0.50584189
C -1.01827160 0.52081947 0.22264471
O -1.62394692 -0.50003589 -0.40940367
C 1.49630139 0.01668541 0.25665075
O 2.57954160 0.46519048 0.55705336
H -1.02452381 -1.72535314 -1.66346929
H 1.39817187 -0.97826860 -0.21193309
H -1.80724192 1.21613478 0.49994025
H 0.43320644 1.72677063 1.01827638
