9

N -0.91638965 1.47856444 0.33180824
C -0.18721891 2.27369132 -0.36661216
O 0.36988151 -1.63093594 -1.21448797
C -0.48819108 0.47928355 -0.63492298
C -0.72843325 1.30961753 -1.66486796
C 0.18758666 -0.81925702 -0.33203463
N 0.54301862 -0.96021766 0.96499747
H 0.94736646 -1.83999582 1.24923636
H 0.27237936 -0.29075058 1.66688333
