9

N -0.24796614 -1.2609684 0.70468354
C 0.6275457 1.9139073 -0.9801242
O 1.9283586 -0.63081104 0.39402518
C 0.2447445 0.68831676 -0.58093935
C 0.73828983 -0.47025946 0.2245038
C -0.9721904 2.0562758 -0.40706664
N -1.126859 0.92793226 -1.0025717
H 0.01943558 -2.0959227 1.2043296
H -1.2113587 -1.1284707 0.4431598
