9

O 2.1497476 1.04483 -0.40633512
C 0.13877371 -0.2261194 -0.2458632
C -1.1634768 -0.36579016 -0.20001003
C -2.5509188 -0.32898262 1.9543947
C 1.4388112 -0.10114228 -0.30697373
N -1.8827795 -0.34322795 0.9852039
H 1.5519148 1.8053526 -0.40701458
H 2.0928779 -0.9693344 -0.28753355
H -1.7749505 -0.51558554 -1.0858685
