9

O 0.14320417 1.5233549 1.2949046
C -0.5489628 0.55190337 0.77667797
C -0.3080332 -0.42121258 -1.3360884
C 1.0514712 -1.2944726 0.50320935
C -0.83320284 0.43241698 -0.58091885
N 1.12208 -1.8839195 -0.5219495
H -0.092363395 -0.9293969 -2.2560654
H -1.0387387 -0.07265043 1.5204577
H 0.5045457 2.0939767 0.5997726
