11

C 0.7674195 -2.4803874 0.34942597
N -0.3636812 0.5728656 -0.599996
C 0.9096549 -0.07095841 -0.65750754
C -0.9163642 0.6867718 0.74409527
N 0.9054253 -1.4175798 -0.12432207
H 1.2513503 -0.122709684 -1.6936345
H -1.0131639 0.107534304 -1.2221421
H -0.2411084 1.290107 1.3610822
H -1.8757516 1.2066463 0.6868255
H 1.6388928 0.510662 -0.08329285
H -1.0626736 -0.28295138 1.2394663
