11

C 1.3800852 0.007514088 0.02232707
N 0.23994175 -0.62541103 -0.62876457
C -0.99816775 -0.5015598 0.10955173
C -1.4299669 0.902871 0.33908966
N -1.7095723 2.0171084 0.46949017
H 1.2455117 1.0829282 0.21338944
H 2.2659588 -0.13049811 -0.60503995
H 1.5675889 -0.48967063 0.98048687
H 0.11933578 -0.24624322 -1.5607426
H -1.7975756 -1.0268294 -0.42385927
H -0.88313913 -0.9902093 1.0840716
