11

C -0.8391453 -0.9878756 0.5350738
N 0.76107115 0.16261743 -2.043258
C 0.39116985 1.2674909 -1.8170779
C 0.88546115 0.6422228 0.072054565
N -0.26232448 0.33757952 0.704702
H -1.7324595 -1.0818413 1.1539832
H 1.6041251 -0.16957314 0.008587125
H -0.11050151 -1.7438016 0.8452494
H 1.2986852 1.6263696 0.24577531
H -0.91262084 1.1009407 0.81588304
H -1.0834609 -1.1541291 -0.5209726
