10

N -1.3212968 -0.6410758 -1.1594608
C -1.2076253 -0.74641967 0.09283883
O -0.1823489 -0.21485145 0.7744083
C 0.7667927 0.47566557 -0.031578556
C 1.8224617 0.98089814 0.8509655
N 2.679416 1.3987812 1.5051689
H -2.1638243 -1.1085969 -1.4861122
H -1.8779876 -1.2540237 0.7911659
H 0.2879468 1.3071051 -0.55769295
H 1.1964658 -0.19748235 -0.77970254
