10

N 0.88452997 0.33090835 -1.79715600
C -0.90373340 -0.69597540 -0.31376920
O -1.04397340 -0.58472978 1.06815787
C 0.21406788 0.04057746 -0.72810526
C -0.11494101 0.18791004 1.51139781
N 0.65551071 0.59858032 0.51795108
H -1.58733526 -1.37265944 -0.79831270
H -0.03835614 0.41992842 2.56327114
H 1.46095818 1.20397319 0.57934954
H 0.47327257 -0.12851301 -2.60278390
