9

C -0.9587226 -1.2853339 1.0058727
C 0.86107033 0.8119238 -1.2499535
C 0.29900452 0.82694817 0.11943847
C -0.33471516 -0.22163163 0.58426356
O 1.4486697 1.7484349 -1.7346085
H -0.42439765 -2.0763881 1.5243621
H -2.0281384 -1.4016263 0.8511481
H 0.702517 -0.13402699 -1.807637
H 0.43471223 1.7317 0.7071141
