9

C -0.43136308 0.0960735 0.08376854
C -0.72477615 -0.78204685 1.048547
C -0.8468893 0.4304345 -1.2823844
C 0.74306005 -0.44711882 1.0733919
O -0.12083682 0.8961415 -2.1255932
H -1.9165651 0.21081641 -1.4483131
H 0.7423779 0.5380289 0.09194869
H 1.1045668 0.26132467 1.8200284
H 1.4504259 -1.2036538 0.73860604
