10

C 1.09286899 -0.12856923 1.04329352
C -0.13656055 1.20456420 -0.29854620
N 0.82500349 1.10674399 0.61760223
C -0.81869649 0.09567191 -0.78318017
N 0.51119704 -1.26301409 0.65831404
C -0.44803918 -1.13520281 -0.26155274
H 1.87700298 -0.21881324 1.79325206
H -0.36900242 2.20660919 -0.65455854
H -1.60088742 0.18602229 -1.52893819
H -0.93288639 -2.05401225 -0.58568564
