11

N 0.8342379 2.1654034 -2.2766542
C -1.0918086 -0.63639444 0.9640976
C -0.026340498 -0.08494916 0.08205054
C 1.2395979 -0.44684395 -0.01785911
C 0.184698 1.5803282 -1.5216345
O -0.58783174 0.96378934 -0.69199896
H -0.6818168 -1.447724 1.5670644
H 1.6027973 -1.25804 0.6002256
H -1.925508 -1.0185473 0.36625028
H 1.9309767 0.038869325 -0.69805366
H -1.4790024 0.14410803 1.6265117
