11

N 0.32587308 2.9290493 0.4513572
C -0.20940189 1.9104019 0.35127276
C -0.85427254 0.60103637 0.20540582
C 0.008118247 -0.3584816 -0.5956851
C 0.9155044 -1.291662 0.06368012
O -0.3314374 -1.7211782 -0.46788517
H -1.8252854 0.73462373 -0.28455517
H -1.0460038 0.17614624 1.1962951
H 0.23657602 -0.03519699 -1.6109416
H 1.7995062 -1.6508266 -0.4605232
H 0.9808232 -1.2939123 1.1515793
