10

O 0.49776042 1.5899944 1.574216
C 0.22813217 0.48221248 1.027874
O 0.8134767 -0.7151377 1.0948912
C -0.4368622 0.6489001 -0.21782386
C 0.6194544 -0.5478713 -0.35997728
C -0.78838843 -0.7146957 -0.7482606
H 1.5337347 -0.54704154 -0.93949014
H -1.3944569 -1.3969296 -0.15393469
H -0.094894536 1.9516948 0.54263574
H -0.9779564 -0.75112605 -1.8201303
