10

O 0.955924 2.0907276 -1.167162
C 0.67225033 1.1140418 -0.5507499
O 1.1305913 0.7525433 0.70462286
C 0.4997413 -0.53848565 0.56739557
C -0.9655131 -0.36693606 0.50930977
C -0.121583186 -0.14768846 -0.7428403
H 1.0773042 -1.4073161 0.84919065
H -1.5577124 -1.2766975 0.47737908
H -1.4285077 0.47395408 1.0188252
H -0.26249492 -0.69414276 -1.665971
