9

O 0.16339945 -0.47840097 -1.63592089
C -0.97239101 -0.08802166 -1.09132212
C 1.21360252 -0.47162435 -0.66732704
O -1.01337188 1.30198644 0.87908175
C -0.59149393 0.08212708 0.37533452
N 0.86578361 -0.13257236 0.48454776
H 2.18476167 -0.75944680 -1.04933572
H -1.06378063 -0.78008060 0.88811970
H -0.78650974 1.32603291 1.81682207
