10

O 0.21404709 2.2105858 0.3905546
C 0.11710642 0.8832557 0.16046341
C -1.0022913 0.19478528 -0.21442857
N -0.5689767 -1.1190633 -0.30897078
C 0.74325 -1.1393743 0.0030292417
N 1.1961087 0.061183035 0.29437298
H 1.128743 2.3753397 0.6510723
H -2.0194361 0.49224705 -0.41209522
H -1.1356875 -1.9096062 -0.5677363
H 1.3271364 -2.0493526 0.0037384508
