10

O 0.43084317 0.23094472 1.9423027
C 0.1670529 0.9485312 0.7899094
C -0.09075486 0.072079055 -0.19263218
N 0.040443297 -1.177721 0.42157525
C 0.3679094 -1.1009619 1.7316839
N -0.49207285 0.18103044 -1.5254198
H -0.6355859 1.1423931 -1.8030351
H 0.15223989 -0.26432735 -2.1681335
H -0.14028817 -2.0559046 -0.04099412
H 0.20021316 2.0239367 0.8447436
