9

O -0.9319253 -1.1334497 -1.9696692
C -0.40878758 -0.62008727 -1.0174549
N -0.8976425 0.31980732 -0.1419044
C 0.064804144 0.6277574 0.8208669
C 1.129882 -0.12298619 0.5271641
O 0.86766934 -0.889599 -0.58454156
H -1.8231064 0.7035166 -0.22376871
H -0.10366414 1.3424257 1.6101769
H 2.1027706 -0.22738484 0.97913086
