11

N 0.237648 2.444108 0.11489627
C -0.2935379 -0.031103285 -0.06727005
C 0.745115 -1.072682 0.0023874938
N 1.9760058 -0.80886 0.18283047
N -1.6373246 -0.47083357 -0.2692999
C 0.010409175 1.242551 0.091485575
H 2.5174115 -1.6703938 0.17657317
H -2.3145165 0.17740318 0.109416135
H -1.8313621 -0.6080607 -1.2581723
H 0.26346824 2.8792698 1.0351061
H 0.3266836 -2.0813985 -0.11795301
