11

N -0.7321861 -0.76081985 1.5607823
C -0.19466452 -0.13224423 0.42176786
C -0.12967747 -0.6108897 -0.8690488
N 0.40123034 0.3949632 -1.6186953
N 0.6901038 1.4838532 -0.90726614
C 0.33147258 1.1785967 0.33199233
H -0.22116004 -0.5321573 2.4027407
H -0.7681807 -1.7655758 1.4624687
H -0.41623378 -1.5585512 -1.3011643
H 0.5832427 0.39755732 -2.607503
H 0.45605314 1.9052674 1.1239252
