11

C 1.3263326 -1.356698 0.50768274
C -0.34016165 0.09443458 0.011416082
N 0.6175204 0.69724476 -0.5336112
C 1.779269 -0.15492457 -0.2795281
C -1.7828693 0.42912462 0.1221745
O 0.03348611 -1.1353236 0.6436829
H 2.5526066 0.3860589 0.28105912
H -2.388919 -0.37195414 -0.31090403
H 2.247931 -0.47701612 -1.2198354
H -1.9820613 1.3639083 -0.3984335
H -2.0631335 0.5251453 1.1762968
