11

C 1.6178563 -0.04312369 1.0875406
C 1.5463833 0.8652823 -0.009259445
N 0.29674548 0.86308223 -0.6557829
C -0.34186238 -0.050342772 -0.013885406
C -1.7406194 -0.51112396 -0.22111328
O 0.3747624 -0.66342777 0.96173394
H 2.2805488 1.635084 -0.2255028
H 2.2214832 -0.20113029 -0.114326075
H -1.7434514 -1.5478361 -0.57038945
H -2.2239516 0.124635346 -0.9629967
H -2.2878947 -0.47109944 0.7239815
