11

C 0.1960789 -0.18129404 -0.22038193
C -1.4394283 0.79226595 0.6645023
N -0.7700471 0.5971564 -0.55628204
C 1.2530147 -0.757178 -1.0917428
C -0.87276375 0.050485313 1.7443432
O 0.24120127 -0.48826194 1.102911
H 2.2317748 -0.37138128 -0.7907108
H 1.0552124 -0.48687506 -2.1287205
H -0.7695705 1.3833783 1.5606039
H 1.2694377 -1.8436724 -0.9817964
H -2.3949099 1.3053769 0.6972743
