9

N -0.81014454 1.8444923 -0.12830819
C -0.111085035 0.81034297 -0.34914535
N -0.23768057 -0.30950302 0.45667407
C 0.482886 -1.4705433 0.298757
O 0.3702246 -2.4388354 1.0094724
H -0.59846234 2.5706944 -0.8034272
H 0.6264905 0.6818504 -1.1475773
H -0.90595853 -0.2645464 1.2185687
H 1.1837299 -1.4239517 -0.5550138
