9

N -1.4481885 1.2219158 -1.0295546
C -0.89844555 0.6637659 -0.028566718
N 0.22614494 -0.13273036 -0.22274125
C 0.83634657 -0.7432601 0.8161369
O 1.8715699 -1.4182371 0.3092326
H -2.249662 1.763313 -0.7320579
H 0.54913646 -0.21965402 -1.1850063
H 2.3047225 -1.8522316 1.0527833
H -1.1916244 0.71711814 1.0197741
