9

N -0.57658317 2.01505309 -0.50736959
C -0.59783970 0.93103637 0.15609199
N 0.24062470 -0.11507633 -0.21732399
C 0.24481717 -1.28231152 0.46231181
O 1.14798119 -2.06755794 -0.13091335
H -1.23724146 2.67603533 -0.11928700
H 0.83869836 0.05994527 -1.02324496
H -1.20911013 0.68191606 1.02333262
H 1.14865302 -2.89904008 0.35640281
