9

O 0.72777086 -1.2727988 1.6349745
C 0.04520142 -1.0118912 0.6553005
C -0.07641657 0.35737556 0.20870341
O 0.65560865 1.2817358 0.8508835
C -0.57504654 0.62290776 -1.0764468
N -1.2105817 1.1130555 -2.001694
H -0.5284223 -1.7765684 0.10068796
H 1.173759 0.77950674 1.5068079
H -0.21187305 -0.09332301 -1.879217
