11

C 1.4934406 -0.3433811 -0.0039302404
N -1.4381441 -0.7804995 -1.554904
C -1.0283585 -0.22096066 -0.5523797
C -1.4087576 0.9651221 0.1615756
N 0.10340309 -0.44847795 0.4095518
H -2.2283077 0.9801971 0.87931144
H -0.089475885 -1.1468935 1.1173171
H 1.5592724 0.40109566 -0.80358845
H 2.1208699 -0.026721196 0.8353234
H -0.9515222 1.9170675 -0.09285118
H 1.8675798 -1.2965481 -0.3954256
