11

C -0.52396581 -0.16047054 -0.35247620
N 0.13006163 0.34091819 0.71454110
C 1.55843066 0.12426346 0.86337227
C -1.72565441 -0.26747823 -1.13038237
N -0.38848754 -0.97348074 -1.30911438
H -1.98479169 0.49727155 -1.86423317
H -2.56128237 -0.87643671 -0.78169941
H 1.83253858 0.22589524 1.91643350
H -0.27834328 1.15599549 1.13791508
H 2.15418178 0.82608562 0.26716170
H 1.78731256 -0.89256319 0.53848190
