12

N -0.58520816 -0.35647964 0.99970420
C 0.23073148 -0.34557667 -1.17264794
C 0.69032596 -0.25356897 0.31313855
C 1.82440905 2.02768488 0.85412414
N 1.33972976 0.98835946 0.61038717
C -1.56739532 -0.07684827 0.04632537
N -1.20718972 -0.06943282 -1.17078184
H -0.65984748 0.06185147 1.91642460
H 0.75779187 0.36922793 -1.80760022
H 1.36269369 -1.06342616 0.60111266
H 0.40838530 -1.35266114 -1.56349043
H -2.59442693 0.07087006 0.37330372
