12

N -0.96194226 0.44829804 0.5853638
C -1.4005197 0.11862971 -0.69946504
C 0.43741536 -1.0529708 -0.49767837
C 2.0950384 1.9062293 0.38289204
N -0.69985723 -0.71252465 -1.354757
C 0.39934656 -0.04638952 0.69084966
N 1.3493097 1.015464 0.5408317
H 1.3725283 -0.98800224 -1.0573618
H -2.3353713 0.5397996 -1.0630553
H 0.3238756 -2.0782075 -0.13088648
H -1.1548561 1.3721246 0.9463028
H 0.5750323 -0.52245057 1.6569638
