12

N -0.43504667 -1.6654104 2.3254337
C -0.34483352 -0.7703887 1.6031315
C -0.254261 0.3628924 0.6619592
C 1.1518857 0.4815902 -0.0060919686
N 1.0059769 -0.07372801 -1.3494003
C -0.23946759 -0.2430161 -1.5362389
N -1.0988569 0.1475518 -0.51157975
H -0.54029036 1.2761471 1.1917998
H 1.4498194 1.5316354 -0.079497434
H 1.9268106 -0.053643063 0.54892606
H -0.66283625 -0.62588084 -2.4622355
H -1.9589008 -0.36774966 -0.38620642
