10

O 0.33817178 -0.5108224 -2.2351277
C 0.14965631 -0.3231502 -1.0687048
C -0.9076268 0.48433113 -0.26707703
C 0.007796339 0.2700123 0.93987733
O 0.0755705 -1.1280115 1.1362419
C 0.9751261 -0.5529052 0.19020206
H -1.907612 0.056922887 -0.17423788
H -0.96555626 1.5127506 -0.6342632
H 0.19960313 0.92034435 1.7854464
H 2.0348709 -0.7294718 0.3276428
