12

O 0.2338817 -1.7645932 -0.3947704
C -0.49290505 0.5200221 -0.14518675
C 0.6586711 0.79548085 0.83235085
C -0.235394 -0.6488659 -1.1069939
N -0.97868776 0.2156857 1.111097
H -0.8626584 1.4302022 -0.6426611
H 0.26601663 0.49842185 1.8630842
H 1.4762003 0.10362802 0.6402975
H -1.1758603 -0.8673342 -1.6372658
H 0.51586473 -0.38478515 -1.8616403
H 0.87072605 1.859328 0.90969634
H -0.2758548 -1.7571905 0.4319927
