12

O 0.93245196 1.24309228 0.80912744
C 0.11160456 -0.09003712 -1.10850701
C 0.21414129 1.25276715 -0.41031589
C -0.67216915 -1.31767257 0.76546091
N -0.24233774 -1.20594166 -0.62280918
H 0.38646145 -0.08289172 -2.16753190
H -0.78804164 1.61670318 -0.15863904
H 0.65201592 1.97276019 -1.12028593
H 1.77251029 0.79392544 0.64918830
H -1.69514944 -1.71404744 0.76623784
H -0.62869833 -0.39477145 1.35447289
H -0.04278898 -2.07388637 1.24360166
