11

C 0.77842134 -1.457332 0.42780694
N -1.1553282 -0.39595294 -0.77871805
C 0.17636174 1.0171539 0.7733187
C 0.04864242 -0.22312336 -0.07775306
N 1.4668862 -1.0705516 -0.5783415
H 0.9953269 -0.023350824 -1.0089897
H -0.22300534 1.8938811 0.2578034
H -1.0687854 -0.9801111 -1.597476
H -1.8532634 -0.8116154 -0.1573464
H 1.2219325 1.1878425 1.0386994
H -0.38718885 0.8631599 1.7009958
