11

C -0.3880623 1.2085744 0.6738791
N 1.5807886 -0.12664776 -0.00245885
C -0.6217143 -1.0296825 -0.3321129
C 0.16089144 -0.049684726 0.060767796
N -1.3159577 -2.0349178 -0.5177978
H 1.9621525 0.5544155 -0.65585154
H -1.7288272 -2.0715926 -1.4526591
H 1.90248 -1.0489604 -0.2697788
H -0.10407781 2.0857382 0.07832627
H 0.030893153 1.3339115 1.6769464
H -1.4785665 1.1788458 0.7407396
