11

C -1.1438142 -0.31244734 0.70706195
N -0.05993099 0.6595163 0.63828915
C 1.1031634 0.18322414 -0.081131294
C 0.83245444 -0.1705284 -1.497861
N 0.5573012 -0.41426846 -2.5931437
H -1.5126327 -0.64139986 -0.2766879
H -1.9760219 0.12669158 1.2652062
H -0.79973984 -1.1954517 1.2576376
H -0.38823265 1.5207684 0.21646573
H 1.8849708 0.948345 -0.06045588
H 1.5024825 -0.7044496 0.424619
