11

C -0.91940606 0.21260238 1.08390507
N 1.48883177 0.15454331 0.52386510
C 0.15656491 -0.05378536 0.06813160
C -0.12024134 -0.50408984 -1.13512515
N -0.33785533 -1.11328573 -2.18796669
H -0.55990262 -0.49521554 -2.97183923
H -1.91115499 -0.01824380 0.68679345
H -0.73614447 -0.39886413 1.97266880
H -0.90926820 1.26603662 1.39199632
H 1.67178751 1.13986063 0.70242764
H 2.17678888 -0.18955849 -0.13485706
