11

N -0.065764904 -1.6390238 0.13002712
C 0.20480451 -0.57551605 0.9322538
O 0.7870288 -0.6301253 1.9967433
C -0.24642596 0.7447883 0.35877907
C 0.25544715 1.1963065 -0.94326127
O -1.0658541 0.69344544 -0.8014101
H -0.7293598 -1.5270923 -0.6214395
H 0.12892653 -2.5603375 0.48894468
H -0.5298737 1.4836842 1.1061536
H 0.32767782 2.263046 -1.1469728
H 0.93339354 0.5508247 -1.4998186
