10

C -0.22564617 0.9766572 -0.36792943
C -0.6298065 -0.03956297 -1.235443
N -0.45373675 -1.3347832 -0.9893429
N 0.13626407 -1.7129546 0.13742557
C 0.5422218 -0.7891436 1.0026639
C 0.38891664 0.5819898 0.8033194
H -0.39119866 2.0192428 -0.61399263
H -1.1210902 0.1830189 -2.1783116
H 1.014727 -1.1797997 1.9004443
H 0.73934877 1.2953352 1.5411667
