10

C -0.44501728 1.2283398 0.63604444
C -0.4860009 -2.3079062 0.28921875
N -0.30367503 -0.4963758 -1.2946222
N -0.29965836 -1.3962966 -0.46727082
C 0.8309897 1.0667988 0.4337275
C -0.041770063 0.83857346 -0.7440905
H -0.0813722 1.5464764 -1.5720242
H 0.24408913 -3.0337055 0.6210617
H -1.2624974 1.4669222 1.2977992
H 1.8449123 1.0871735 0.80015606
