10

C 0.6711977 0.19548833 0.6963601
C 0.8613499 0.7057406 -0.5164684
N -1.5405786 -0.6370143 -0.13777113
N -0.7513075 -1.3380226 -0.75607616
C -1.4537634 0.20769951 0.79100335
C 0.6002587 -0.7197026 -0.5120261
H 0.972298 0.28579035 1.7275738
H 1.3725277 -1.4241949 -0.81536824
H -1.9156427 1.1855634 0.6433185
H 1.1836603 1.5386524 -1.1205455
