10

C -0.71909978 1.25431377 -0.14492749
C -0.14797048 0.24863797 -1.08393019
N -0.10628649 -1.18517797 -0.77376380
N 0.01046125 -1.44403676 0.41524670
C -0.05159086 -1.79015999 1.56171097
C 0.57545143 1.26697058 -0.28348589
H -1.61360843 1.65292857 0.30681933
H -0.26245483 0.34571903 -2.16357722
H 0.77840562 -2.04114037 2.20827922
H 1.53669258 1.69194501 -0.04237130
