10

O 0.3386802 -0.50818187 -2.2359262
C 0.14863403 -0.32324216 -1.0689307
C -0.9075097 0.48437226 -0.26520562
C 0.009027304 0.26939484 0.94127333
O 0.07289216 -1.1286969 1.1325502
C 0.97468895 -0.55402476 0.1872332
H -1.9076312 0.05882625 -0.1715627
H -0.9648543 1.5144387 -0.63227975
H 0.20139903 0.91802394 1.7874917
H 2.0346735 -0.73091036 0.3253565
