10

O 1.85244219 1.63082998 -0.79549566
C 0.93282990 1.02085299 -0.35443195
O -0.20724864 1.49955080 0.18757538
C 0.58675561 -0.45468126 -0.17647436
C -0.68805107 0.16076641 0.51832938
C -1.59232818 -0.45530814 -0.39673090
H 1.22097172 -1.04962183 0.48250849
H -1.81771447 -1.43651767 0.06802378
H -0.71575614 0.03949907 1.60465605
H 0.42809899 -0.95537030 -1.13796013
