10

O 2.0320745 -0.24318689 1.7697783
C 1.1881721 -0.043353677 0.9389696
O 1.0631778 -0.7998817 -0.17994633
C 0.14265373 1.0688057 0.9858429
C -0.8437598 0.53724605 0.032822944
C -0.11860924 -0.44368136 -0.899039
H -1.4929957 1.2732476 -0.4460505
H -1.4694237 -0.021503534 0.75916106
H 0.16747627 0.033053458 -1.8416016
H -0.66876596 -1.3607457 -1.1199374
