11

C -0.51965374 1.1352814 0.47953334
C -0.12815432 -0.23236191 -0.032081477
C 1.2603204 -0.71304345 0.028821606
O 0.28076124 -1.1814519 0.9387143
C -0.9896288 -0.77558 -1.0795386
N -1.6807467 -1.166819 -1.9194065
H -1.5259393 1.1099154 0.90825844
H 0.18308067 1.4508983 1.2546493
H -0.5074319 1.8684155 -0.33283007
H 1.6131828 -1.4455265 -0.6944055
H 2.01421 -0.049727973 0.44828522
