11

C 1.2481942 -0.6424036 1.2619344
C 0.15137564 -0.6598289 0.3455144
C 0.45292786 -0.71645594 -1.0822039
O 0.3365457 0.63966316 -0.6783673
C -1.1412749 0.886672 0.23223965
N 2.0354123 -0.6553194 2.1119192
H 1.4832978 -0.8944922 -1.3892324
H -0.30504057 -1.0623258 -1.7854065
H -1.1751853 0.88473254 1.3209729
H -1.1395619 1.9186159 -0.13478573
H -1.9466909 0.30114198 -0.20258465
