11

C -0.29400348 1.17616984 1.06629197
C -0.07948383 -0.17054634 -1.20953974
C 0.92520975 -0.52218536 -0.17906762
O -0.27660320 -0.16455666 0.54574268
C -0.82132237 -1.29709297 -1.67963208
N -1.44768023 -2.13438451 -2.18761184
H -1.31769809 1.35685034 1.39067043
H -0.01084695 1.87844371 0.27804275
H 0.39100489 1.23093616 1.91757775
H 1.19285444 -1.54561649 0.08659074
H 1.73856942 0.19198214 -0.02906499
