11

N -0.61415361 -0.44285643 1.49951975
C 0.39650920 0.47384181 -0.48439323
C -0.29402342 -0.77235670 -0.73791904
N -0.79604194 -1.15549564 0.44121904
N 1.05817039 1.27630401 -1.22552673
C 0.17510237 0.68621571 1.00516854
H 1.12321961 0.73050308 1.55338712
H -1.33321664 -2.00785556 0.56503249
H -0.43550375 -1.35248034 -1.63353705
H 1.08260881 0.94420784 -2.18836124
H -0.36267103 1.61997223 1.20541002
