11

N -0.16208261 -0.380145 -1.9080471
C -1.04271 -0.75204164 0.49301487
C 0.71661 1.0319908 1.1918118
C -0.3635284 -0.47421265 -0.57404053
C 0.4044594 -0.34682852 0.6972602
O 0.20192422 2.0410018 0.7702314
H 0.5435448 0.28604558 -2.1870582
H -1.9340554 -1.0345279 1.0197899
H 1.4820558 1.0685774 1.997246
H 1.1474216 -1.0981363 0.98133504
H -0.9936395 -0.34172332 -2.4815435
