10

O -0.78536713 0.28590167 -1.9207506
C 0.58763665 0.14017284 1.2067397
C -0.45497134 -0.122697085 -0.74573284
C -0.22107539 0.8768802 0.25344834
N 0.07394898 -1.2763579 -0.3235941
N 0.76050514 -1.1088978 0.881689
H 0.99365616 0.49387398 2.1460907
H 0.2728907 -2.0887735 -0.88460964
H -1.0144728 1.5579963 0.5514551
H -0.21275096 1.2419008 -1.1647358
