10

N -1.0062295 -1.2157183 -0.82912683
C 1.052905 1.3035955 0.37199923
O 0.32669544 0.638084 -0.99094254
N 0.13292368 -0.1276925 0.9849341
C -0.21654145 -0.2821887 -0.26839373
O 2.2384238 1.2815408 0.442328
H -1.5480808 -1.8408142 -0.2615269
H -1.2272034 -1.1180757 -1.8070359
H -0.111198016 -0.7523564 1.7448634
H 0.35830498 2.1136255 0.61290115
