10

N -0.05792151 1.74778544 0.47630283
C 0.48137971 0.49369871 0.32354438
O 1.58725887 0.17867103 0.70640339
N -0.35993847 -0.39044561 -0.35586536
C -0.02979188 -1.71465719 -0.59245345
O -0.74789137 -2.46217232 -1.20865821
H 0.46633099 2.34720958 1.09562450
H 0.94103730 -1.98965224 -0.15905040
H -1.22038706 -0.07124384 -0.78011036
H -1.06007643 1.86080594 0.49426274
