10

N 1.4807663 0.5018195 0.9169404
C 0.22259606 0.6223301 0.3773882
O -0.44935274 1.6291249 0.44608882
N -0.23068607 -0.550152 -0.23253347
C -1.4587525 -0.6416777 -0.86827445
O -1.8591285 -1.670649 -1.3548101
H 1.878297 1.377202 1.2227798
H 2.1310236 -0.1649281 0.53102833
H 0.288988 -1.4144676 -0.16249631
H -2.003751 0.3113974 -0.87611115
