11

O 0.13698296 1.7602595 -0.14974508
C -0.37922707 -1.8325695 0.24401273
C -0.4178319 0.5086087 -0.5133254
O 1.4487723 -0.436889 0.6800941
C 0.050851654 -0.45984015 0.5709214
N -0.75160867 -2.8924503 -0.026491271
H -0.4309335 -0.18076494 1.5208534
H 1.6869993 0.50106597 0.6339511
H -1.5137119 0.54587007 -0.5478084
H 0.20206957 2.3213248 -0.9292732
H -0.03236277 0.16538477 -1.4831893
