11

O 1.56000051 -0.23534770 0.51317740
C 0.25637144 -0.65528936 0.21180086
C -0.61091917 0.53618957 -0.18986260
O -0.50630469 1.44515684 0.89155971
C 0.31376620 -1.63416679 -0.89034599
N 0.31902833 -2.39295378 -1.76178296
H -0.20952017 0.96778460 -1.11702476
H 1.44695583 0.57035741 1.03920115
H -0.21375878 -1.15533878 1.07278801
H -0.70738889 2.33487043 0.58387561
H -1.64823044 0.21873771 -0.35338659
