11

O 1.6794217 0.66761935 -0.51455724
C 0.7611738 -0.04831974 0.24861212
C -0.33623278 0.691538 1.0433625
O -1.352829 -0.1437777 0.4136534
C -0.42440334 -0.68640137 -0.43866503
N -0.55912495 -1.3744109 -1.4795974
H 1.2614393 0.90182716 -1.352744
H 1.3184667 -0.756653 0.86873126
H -0.34636658 0.57256216 2.1281855
H -0.45904967 1.7395126 0.75341463
H -1.542495 -1.5634964 -1.6703959
