11

C -0.3376967 -0.75831693 0.3499629
C -0.8338606 -0.012654582 -0.82219297
N 1.2277906 1.2389559 0.078974225
C 0.649912 0.016410314 -0.4138399
N -0.5328262 -1.4032564 1.408265
H 1.3142294 -0.5266153 -1.0823946
H -1.0882785 -0.54748595 -1.733655
H 0.5484005 1.7402061 0.6448689
H 2.001094 1.0147723 0.69944507
H -1.5205203 -1.6455771 1.5163581
H -1.428244 0.883562 -0.6457916
