11

C -0.87408616 0.47480814 -0.61807410
C 0.54232755 -0.12172721 -0.53383673
N 1.61393842 0.66607925 0.01610715
C -0.55784639 -0.64675316 0.28648822
N -0.84643908 -1.40447253 1.24388123
H -1.03970242 1.45776307 -0.17763787
H -1.82579653 -1.29662217 1.51805338
H 1.26827388 1.23214616 0.78626541
H -1.43771947 0.29068137 -1.52909052
H 0.84411285 -0.69665498 -1.40650133
H 2.31293721 0.04475192 0.41434522
