11

C -0.5912383 0.88392955 0.45860332
C 0.61772233 0.49040952 -0.8557484
N -0.63367134 1.977651 0.99622595
C -0.4715864 -0.41236228 -0.16155884
N -0.008241267 -1.5721333 0.5514958
H 1.6192286 0.15384108 -0.5743609
H 0.46020207 0.58867985 -1.9298794
H 0.25733992 1.82031 0.052529965
H 0.7881208 -1.3381315 1.1320959
H -0.7376601 -1.9351118 1.1557798
H -1.3002161 -0.65708196 -0.8251831
