10

O 0.05974919 0.69804628 -0.20012246
C 1.75299766 -0.96977519 2.28808856
O -1.49980042 0.20269737 -1.71094916
C 0.09210547 -0.54095784 0.32245984
C 0.99002859 -0.74848106 1.37418764
C -0.66565706 1.09394394 -1.16132345
H -1.99027757 0.59695990 -2.44136151
H -0.56782665 -1.28484550 -0.09464747
H 2.42009949 -1.17166566 3.09528768
H -0.59141869 2.12407781 -1.47161949
