10

O 0.43905953 0.399055 -0.42292956
C -0.20748138 -0.3391647 0.49700898
O -1.3015546 0.5034766 -1.8083975
C 1.1208408 -1.0202194 2.6366043
C 0.523727 -0.6934953 1.6350983
C -0.030095233 0.81262964 -1.5255203
H 0.6047464 1.4051613 -2.1649365
H 1.6390346 -1.3092557 3.5227692
H -1.5540504 0.84759647 -2.672886
H -1.2342267 -0.60578376 0.30318922
