10

O 0.8339683 0.29010218 2.2760112
C 0.17771354 0.4610846 1.1063126
C -0.81568277 0.5357982 -1.346212
C -0.9360179 -0.73872966 -1.4273306
N 0.4380824 -0.21264286 -1.2025816
N 0.7930504 -0.26952466 0.20745043
H 0.36752805 0.82178724 2.9302714
H 1.6642188 -0.7685154 0.3641637
H -1.4202439 -1.69123 -1.5590441
H -1.102617 1.5718702 -1.3490405
