10

O -0.7987373 -1.732203 -0.74563634
C -0.30025867 -0.5881838 -0.23589249
C 0.86461115 0.12375007 -0.4220293
C 0.7136429 1.2351221 0.4457629
N -0.4304931 1.2127868 1.102609
N -1.0389225 0.08517415 0.669416
H -0.1610503 -2.0982647 -1.3702711
H 1.6893353 -0.11824803 -1.0772746
H 1.4079366 2.0487669 0.60796976
H -1.9460641 -0.16870026 1.0253463
