10

O 1.84450944 1.53166362 0.46008772
C -0.88583430 -1.59404973 -0.36527624
C -1.44220666 -0.72572553 0.39757689
C 0.73697185 0.76575076 0.58189938
N 0.31992144 0.49344300 -0.63148431
N -0.93801502 -0.19643542 -0.87457231
H -0.53518464 -2.55699157 -0.69522776
H 0.70940307 0.89229484 -1.48101738
H 2.14796892 1.71612745 1.35574243
H -1.95753413 -0.32607718 1.25227171
