9

N -2.1966844 0.3122347 -1.4320453
C -1.2767788 0.45469722 -0.7472339
C -0.102666356 0.6232445 0.089041434
C 0.47107983 -0.58036643 0.75375116
N 1.1726384 0.056286115 -0.34457618
H -0.03179915 1.5912803 0.575897
H 0.9316457 -0.46176776 1.7303731
H -0.029095728 -1.5304354 0.5834957
H 1.0616605 -0.46517316 -1.2087028
