9

N -2.1943674 0.3111847 -1.4337404
C -1.2758249 0.45150423 -0.7485502
C -0.102641605 0.6216495 0.08802013
C 0.47071934 -0.57873935 0.75487536
N 1.173854 0.056636043 -0.3442616
H -0.03384642 1.5921588 0.57123786
H 0.92815 -0.45665842 1.7331827
H -0.026578328 -1.5293541 0.5869075
H 1.0605353 -0.4683813 -1.2076713
