9

N 0.23157132 -0.49945065 1.0306652
C -0.46182072 -0.46934697 -0.56622523
C 0.961703 -0.2854709 -0.2234437
C -1.2187984 0.7426445 -0.707
N -1.89303 1.6751955 -0.8594333
H 1.3813772 0.71724164 -0.28931755
H 1.6664981 -1.0788748 -0.4621323
H -0.047406066 0.37084225 1.4791418
H -0.62009466 -1.1727806 0.597745
