9

N -1.1863511 -2.4252334 -0.6496258
C 0.9225901 0.34393728 -0.12340744
C -0.5856417 -1.5988758 -0.09268933
C 0.12967373 -0.6235577 0.6651345
N -0.41218686 0.78353536 0.33524248
H 1.7504992 0.86172825 0.3561001
H -0.49562892 1.4253719 1.1137884
H -1.1079531 0.92364067 -0.392618
H 0.9849987 0.30945343 -1.211925
