11

C -0.8225739 0.7477155 -0.8343297
C 0.49975798 0.6241887 -0.12872455
O 0.4939147 0.68438864 1.2890207
C 0.8675026 -0.5430242 0.68993884
C -0.054640003 -1.6571153 0.8553292
N -0.77161497 -2.5568652 0.9658343
H -1.1526968 1.7910122 -0.8309096
H -0.7238599 0.42451036 -1.8763211
H -1.5878209 0.13854222 -0.34689373
H 1.335527 1.1615634 -0.58148026
H 1.9165046 -0.8149161 0.7985359
