11

C -1.0798492 -0.23157395 0.96610457
C 1.1506584 -1.0336803 -1.1176516
O -0.6738787 0.48547027 -0.581019
C 0.60424334 0.8321366 0.5238611
C 0.7011593 0.33332348 -0.86059016
N 1.5080326 -2.1147127 -1.310659
H -2.095133 -0.3635733 0.5770149
H -0.55896795 -1.1800808 1.058655
H -1.1105025 0.3118993 1.9056861
H 0.5910506 1.9336132 0.49913278
H 0.9631869 1.0271785 -1.6605349
