11

C 0.80714613 0.64186543 -0.30447435
C 0.28859556 1.2388005 0.9647589
O -0.63816875 0.5344982 -0.30257675
C 1.5424812 -0.6181767 -0.24766153
C -1.2273761 -0.7193464 0.07943133
N 2.1554816 -1.5957669 -0.20576656
H -2.263336 -0.48374426 0.32042268
H -1.1752567 -1.4007165 -0.77457
H 1.1024961 1.2208915 -1.1856015
H 0.12235327 2.2991836 0.7008834
H -0.7144163 -1.1174884 0.9551544
