10

O 0.5342577 1.8172601 -0.74614334
C 0.44124317 -0.8553636 1.0384688
N -0.54664487 -0.2848257 -0.92559916
C -0.23888825 0.8742539 -0.08317368
C -0.18190236 -1.2954547 -0.23778562
N 0.45481962 0.4210791 1.1123438
H -1.2076725 1.2859991 0.25301176
H 0.8463221 -1.4970957 1.8154662
H 0.20729896 1.854746 -1.6534222
H -0.30883357 -2.3205986 -0.5731665
