11

C -0.93708086 1.3017813 0.2946617
N -0.08815658 0.15993589 0.027835062
C -0.38058433 -1.1513754 0.008933807
N 0.6970998 -1.8572862 -0.2750215
C 1.6406672 -0.8964074 -0.4227751
N 1.218039 0.34099552 -0.25057867
H -0.57632434 1.8304956 1.1796149
H -0.91793364 1.9773179 -0.56303054
H -1.9580592 0.9521171 0.4651708
H -1.369822 -1.543356 0.20197596
H 2.672155 -1.1142185 -0.66678643
