11

C -0.18437265 -1.6127374 0.7408832
N 0.17318796 -0.8196701 -0.438736
C 0.2730806 0.49509174 -0.44836685
O -0.9287624 2.6775641 -1.0613319
C 0.06208953 2.1907125 -0.60042065
O -0.004813545 1.183584 0.5979991
H -1.0133914 -2.2791216 0.4922749
H -0.49183857 -0.93262476 1.5372896
H 1.079829 2.5967054 -0.5924231
H 0.36150345 -1.3004761 -1.3038268
H 0.6734879 -2.1990278 1.0766585
