9

O 1.7199185 1.3884188 0.35167462
C -1.3432219 -0.9505473 -0.31685835
N 0.71527636 1.0604019 1.5100935
O -2.1532853 -0.45504656 0.43927303
C 0.08026008 -0.63193655 -0.34033078
C 0.5337206 0.24796075 0.55889946
H 1.3166958 2.1450386 -0.105929255
H 0.7760225 -1.1040386 -1.0212872
H -1.6453867 -1.700251 -1.0755349
