9

O 1.8388962 -0.4560947 -1.8052348
C -1.6728567 0.026691658 0.80449826
N 1.3431399 0.50753635 -0.94866514
O -2.233045 0.30134562 -0.23185645
C 0.5984148 0.14542936 -0.042886548
C -0.21134727 -0.0842038 0.96936476
H 0.205001 -0.3458452 1.9366004
H -2.2463574 -0.15555392 1.7365856
H 2.3781548 0.0606947 -2.4184065
