9

O 0.027715817 -1.1436602 -1.8581787
C 0.058472887 1.3974422 1.3263968
N 0.044087727 2.0099893 2.3056495
O -0.12709163 -0.7174264 0.35108703
C -0.13082206 -1.5134465 -0.7281795
C 0.08369781 0.66729164 0.055355698
H -0.7044784 1.0392451 -0.6062614
H 1.0506365 0.8106526 -0.4383511
H -0.30221868 -2.5500882 -0.40751827
