11

N 0.09988205 0.7138249 -1.7201159
C -0.0046209684 0.16804789 -0.4360447
C 0.89077425 -0.5042414 0.36760974
C 0.13201477 -0.8600319 1.5063659
N -1.1168401 -0.44326085 1.4317995
N -1.180819 0.18169363 0.23483323
H 1.0449741 0.6373449 -2.0736313
H -0.19344704 1.6816701 -1.7685337
H 1.9335148 -0.7006331 0.16606188
H 0.4624632 -1.399705 2.3839836
H -2.0678961 0.52529085 -0.09232823
