10

O -1.2246721 -1.1869541 0.7273153
C 0.8981872 -0.2217738 0.95971
C -0.40471828 -0.2027606 0.28304756
N -1.0509808 0.89553756 -0.32943717
N 1.7379023 0.52742344 0.2997175
C -0.23497912 0.41944435 -1.2111677
N 1.648131 0.9993138 -0.77818745
H -2.1360838 -0.92565465 0.51934755
H 1.1409701 -0.83253866 1.8122046
H -0.37375656 0.5279626 -2.28255
