10

O 0.94777253 -1.10915675 1.11735781
C 0.18823043 -0.44911608 0.16845086
C 0.72400663 0.91858438 0.00638398
N -0.03230918 1.85646712 -0.46082257
N -0.70895162 2.67300369 -0.86614838
C -1.14640909 -0.84533749 -0.17255993
N -0.28568743 -1.20956908 -1.03041111
H 0.77727206 -2.05759685 1.02572891
H 1.75122775 1.16186057 0.23216952
H -2.21515193 -0.93913956 -0.02014921
