10

C -0.73617267 1.37635378 -1.38252589
C -0.27472911 0.87906485 -0.26939266
N 0.47328394 -1.90124612 0.20999940
N 0.38407666 -2.69360573 -0.60436292
C 0.57257409 -0.99090509 1.12576135
C 0.18855560 0.39575262 0.86086183
H -0.06915289 1.78604287 -2.13597572
H -1.80272828 1.40233215 -1.58953030
H 0.95303220 -1.32579232 2.08092600
H 0.31126040 1.07200323 1.70423917
