10

C -0.22291723 0.97425616 -0.37102655
C -0.6278257 -0.040200595 -1.2365483
N -0.4556647 -1.3358289 -0.98786056
N 0.13136986 -1.7108725 0.13968231
C 0.5387313 -0.7877181 1.0056193
C 0.38851306 0.58234406 0.8049682
H -0.38472924 2.0181599 -0.61962634
H -1.1158437 0.18247412 -2.1821482
H 1.0101011 -1.1800112 1.9050964
H 0.7382652 1.2973973 1.541844
