10

O 1.494233 -1.2234983 -0.5586974
C -0.63163877 1.1665595 0.37445253
C 0.4908858 -0.4171461 -0.17913494
N 0.38926646 0.96976304 -0.66611844
N -1.6147003 0.10554351 0.3911031
C -0.9056889 -0.8957643 0.03797793
N 0.70347095 0.6970728 0.75312895
H 2.2813501 -0.67784554 -0.7054903
H -1.2827579 -1.9040438 -0.08306695
H -0.9244203 2.1793594 0.63584554
