12

N 0.877882 1.0092316 -1.1358451
C 0.5067217 1.7083032 -0.14688647
C 0.2949629 -0.33190113 -1.1669812
C 0.36259785 -1.3232214 1.1386366
N -0.5586363 0.8530608 0.66404814
C -0.43111503 -0.5210155 0.19072755
N 0.9741337 -1.9404875 1.8992949
H -0.40968233 -0.3789383 -2.003418
H -0.5465388 1.0326896 1.6623825
H -0.7314475 1.9633878 0.15012516
H -1.4120463 -0.98754364 0.071460724
H 1.0731682 -1.0835658 -1.3235444
