12

N -0.10752774 -2.63336076 1.18400345
C -0.38677574 -1.61820240 0.71015443
C -0.18607477 0.89908526 0.84326307
C 1.06361198 0.67394236 -0.93627959
N -0.00884605 -0.17811627 -1.20442676
C -0.71974092 -0.33569295 0.06186841
N 1.03427277 1.31814857 0.15713406
H -0.91507357 1.71562150 0.80304855
H 1.84689584 0.78847588 -1.68079986
H 0.01879431 0.67590115 1.89285217
H 0.16226328 -1.01359889 -1.74655453
H -1.80179950 -0.29220316 -0.08426301
