12

N -0.43589067 -1.6683092 2.3257458
C -0.3464793 -0.77152205 1.6046056
C -0.25345954 0.36173075 0.6619832
C 1.1509926 0.4809507 -0.006377394
N 1.0067105 -0.07823636 -1.3482816
C -0.23986615 -0.2428082 -1.536564
N -1.098988 0.15173225 -0.5143255
H -0.53656596 1.2749852 1.1930143
H 1.4464349 1.5320522 -0.08166949
H 1.9265648 -0.04977921 0.5515007
H -0.6623643 -0.62485605 -2.4615781
H -1.957089 -0.36593974 -0.38805315
