12

N 0.00013319116 -0.04322239 -1.2167906
C -0.14037849 -1.7255882 0.52453125
C -0.66311425 -0.44081718 0.022453764
C 0.94265825 0.9197619 -0.85294884
N 0.8362339 1.4280709 0.30537394
C -0.301608 0.7639832 0.93778086
N 0.2883713 -2.735926 0.88293046
H 1.6909575 1.2277739 -1.5783031
H -0.052261118 0.45801002 1.9564203
H -1.1408471 1.4661417 0.9871677
H -1.7421162 -0.5380611 -0.120357096
H 0.2819708 -0.78012663 -1.8482586
