11

O -1.84524787 0.79830067 -1.42620112
C -1.13888267 0.10171636 -0.77198958
O -1.33392610 -1.19970350 -0.38953932
C -0.08992759 -1.24093204 0.35253610
C 0.21192952 0.18940549 -0.08101449
C 1.48413198 0.83557663 -0.43189821
O 0.31895002 1.27557702 0.87862503
H 0.59473912 -1.99024237 -0.04963817
H -0.27786984 -1.39805691 1.41731315
H 1.21887871 1.65014712 -1.12717370
H 0.85722464 0.97821146 1.62898011
