12

C 1.4020743 -0.29081795 0.881052
C 0.3360243 -0.5045954 -0.18620487
C -0.59052557 0.69436353 -0.31829277
O -0.22058943 1.8336782 -0.11071111
N -1.8666039 0.39535365 -0.70232046
H 2.1153624 -1.1202828 0.88768166
H 1.9438208 0.63997954 0.694684
H 0.9523146 -0.22078311 1.8765168
H -0.24795952 -1.4126619 0.0152725745
H 0.80784273 -0.6449793 -1.1671126
H -2.1450047 -0.5342512 -0.9618885
H -2.4867563 1.1649964 -0.9086766
