11

C -0.50912485 0.35513833 1.23561498
C -0.70669005 -0.17134375 0.02529803
C 1.49807554 0.09811680 -0.72552629
O 0.17153157 -0.34345063 -0.97917693
C -2.02000646 -0.65646471 -0.35565137
N -3.07406194 -1.03669611 -0.63937990
H 1.93483452 -0.44842636 0.11718399
H 1.51484438 1.17399487 -0.52310478
H 0.46235708 0.72896700 1.54758792
H -1.32906878 0.41784089 1.93341271
H 2.05730908 -0.11767659 -1.63625830
