12

N -0.2789923 1.8149495 -0.8489976
C 0.981304 -0.4481873 -0.16073918
N 0.6507698 -1.7645336 -0.35322982
C 0.0536618 0.1474106 1.0307591
C -0.06048443 0.66686547 -0.25807172
C -0.5410032 -1.852773 0.21165651
N -1.0349772 -0.80570626 0.87989396
H 0.32040024 0.6034038 1.9833864
H -0.2608886 1.8835671 -1.856955
H -0.6704007 2.5958176 -0.33863923
H 1.9814966 -0.08621749 -0.39846978
H -1.1408861 -2.7545965 0.10940621
