12

N -0.11080384 -1.93460902 0.01677082
C -1.11051374 0.26868231 -0.11968404
N -0.32157178 0.04766287 1.13095192
C -0.13648815 -1.38310345 1.15919742
C 0.28647291 0.46196137 -0.20101919
C -0.29606349 -0.78006572 -0.84824059
N 1.13223966 1.49998933 -0.56926688
H -0.31617472 -0.90131208 -1.92628178
H -2.00094531 0.87141631 -0.24471726
H -0.02420456 -1.89472619 2.10941272
H 0.81000361 2.40115102 -0.23841343
H 2.08804943 1.34295363 -0.26870939
