10

N -2.0814524 -0.38327083 1.4742111
C -1.6028625 0.42091358 0.3522767
N 1.8945166 0.3402097 -0.5920904
O -1.2695096 -1.159176 1.9159902
C 0.63482213 -0.18545961 -0.8581281
C -0.48423642 0.1648836 -0.27785602
H -2.2910674 1.2160889 0.083625786
H 2.6467197 -0.321421 -0.72164285
H 1.96007 0.815908 0.29547542
H 0.5930001 -0.9086762 -1.6718621
