10

C -0.48543856 -0.07698064 -1.0882999
C -1.1967616 0.17698708 0.11877258
N 0.8951947 0.20857514 1.2694137
N 1.5174633 -0.38918775 0.36228314
C -0.39643392 0.67521906 1.1195178
C 0.87838113 -0.3668001 -0.92285246
H -2.280801 0.14723757 0.17245688
H -0.72514594 1.3403522 1.9118081
H 0.21793805 -1.3615867 -1.1836517
H 1.5756038 -0.35381597 -1.7594482
