11

C -0.61552656 -0.43067586 0.29981416
C -0.87436575 1.0493903 0.23578863
O 0.39825973 -0.87556744 1.2014612
C 0.6348237 -1.0353215 -0.17227335
C 2.4778235 0.41453117 -1.2404615
N 1.6448685 -0.24250562 -0.7388816
H 0.66575205 -2.0636854 -0.5313802
H -1.4360689 1.3681314 1.1177111
H -1.4650152 1.2847275 -0.6551629
H 0.063917436 1.6084142 0.195147
H -1.4944685 -1.0774386 0.28823748
