11

C -1.1271323 -0.4163332 0.30618602
C 0.3296036 -0.40107366 0.51107657
O -0.58172023 0.2885171 1.3660344
C -2.2037294 0.5714239 -0.5832664
C 1.2922187 0.4307603 -0.28652224
N -1.3599973 0.2401581 -1.3564787
H 1.687214 -0.15741295 -1.1207131
H 0.7422893 -1.3044254 0.96759975
H -1.7075279 -1.3064924 0.5278153
H 0.80173004 1.3216954 -0.6840001
H 2.1270516 0.73318285 0.3522684
