9

O 1.4596664 -0.7197251 0.7761686
C 0.36704466 -0.036486927 0.30398083
N -1.3747408 -0.31759182 -1.091187
N -0.25331542 1.0029365 1.1692646
N -0.53546727 -0.9198206 -0.399811
C 0.40978903 1.3789032 0.14956182
H 0.72112566 2.295491 -0.3281057
H -1.9747424 -1.0491866 -1.5029114
H 1.1806401 -1.6345195 0.9230394
