9

O 1.680787 0.9297623 0.6072579
C 0.5633936 0.30868044 0.19376975
N 0.43066788 -0.243811 -1.0002234
N -0.8097792 -0.7268289 -0.9579663
N -1.4811804 -0.5317904 0.15645708
C -0.62496597 0.13590701 0.9269492
H 2.3250341 0.89280415 -0.111051
H -1.2092946 -1.2171087 -1.742305
H -0.87466234 0.4523851 1.9271116
