9

O 1.3027993 -0.20954531 1.1986604
C -0.8753646 0.7382153 0.8583629
N 0.2159289 -0.8112905 -0.7532983
N -1.0756574 1.5309478 -0.06483947
N -0.22763194 -0.24340808 -1.7898835
C 0.23324957 -0.17232753 0.40857512
H -1.2116733 0.6885597 1.898901
H -0.4347808 -1.0097255 -2.4509232
H 2.0731301 -0.5114257 0.6944453
