11

C -0.79864925 0.66139024 1.7074103
N -0.8747367 1.7936958 1.3500078
C 0.976816 -1.0193158 -0.15517354
C -0.9242027 0.4734391 -0.28494683
N 0.3003325 0.13061765 -0.7459956
H 1.9475431 -1.1545613 -0.6351336
H -1.6117048 -0.35407466 -0.12843351
H 0.36955512 -1.9130365 -0.32514235
H 1.0905355 -0.87784183 0.92683196
H 0.8960853 0.9146919 -0.9695786
H -1.3715744 1.3449953 -0.73984605
