11

C 2.447638 -0.1250952 0.95343375
N 1.4364802 -0.62145394 0.6283574
C -0.5802402 1.051648 -0.6539879
C 0.12373909 -1.0920109 0.22895506
N -0.88106877 -0.07620296 0.22282852
H 0.21714316 -1.5134392 -0.77821946
H -0.49398318 0.6918726 -1.6853665
H 0.34909475 1.5753069 -0.39097038
H -0.16095406 -1.8929821 0.91581935
H -1.4126076 1.7583425 -0.61097914
H -1.0452415 0.24401395 1.1701292
