12

N 0.85683364 -1.7390189 0.56528413
C 0.2669755 -0.54399604 0.17052947
C 0.92975646 0.39290148 -0.6270173
N 0.3490158 1.5066248 -1.0636492
C -0.91746646 1.6978184 -0.69792116
N -1.651759 0.88383985 0.059254337
C -1.0561377 -0.22503598 0.48689473
H 1.8653926 -1.7371074 0.60238343
H 0.4442434 -2.1767192 1.3754865
H 1.9656293 0.23105605 -0.92335004
H -1.400375 2.6043346 -1.0531725
H -1.6521083 -0.89469784 1.1052777
