12

N 0.09728856 -1.45689652 -0.14672458
C 0.00478006 -0.04086321 -0.32128847
C -0.72661409 0.44160683 0.85564584
N 1.21651429 0.68248683 -0.76462603
C -0.01007589 0.62883159 -1.67644857
N -1.17733738 -0.55765053 1.54923757
C -0.61828754 -1.67741961 0.89588426
H 1.98626077 0.08110026 -1.03295824
H -0.79588745 -2.66636174 1.30287933
H 1.49098957 1.47850313 -0.19090046
H -0.48934345 1.61149985 -1.55570179
H -0.97828721 1.47516293 1.08500124
