12

N 0.20946543 -0.17505567 -1.5671082
C -1.2636768 0.10247623 -1.2643695
C -0.25259504 -0.1206557 -0.16296288
N -0.18647864 -1.3215787 0.6100787
C 0.26410705 0.93067425 0.7205604
N 0.44088694 0.46775612 1.9193898
C 0.17132272 -0.91027117 1.7721962
H 0.29216766 -1.5639647 2.6285107
H 0.8995221 0.525855 -1.832976
H 0.382379 1.9843795 0.4758188
H 0.41784596 -1.1082727 -1.9015647
H -1.3749465 1.1886575 -1.3975738
