10

O 0.022407442 0.32248184 2.0217874
C -0.02473922 0.118406296 0.68849707
C 0.890665 -0.28700063 -0.25412098
C 0.14464398 -0.27960765 -1.4597434
N -1.1089963 0.094548896 -1.2798468
N -1.1924052 0.3346448 0.0469751
H 0.9158389 0.13492534 2.336156
H 1.9271234 -0.54681456 -0.09986981
H 0.48538607 -0.5362832 -2.4533095
H -2.0599241 0.6446989 0.4534751
