10

O -0.44729868 -1.8740518 0.23463537
C -0.43040746 -0.48701543 0.43802243
C 0.8886762 1.1554434 -0.3579848
C -0.12974133 0.39057642 -0.74193966
N 0.62625456 -0.14663808 1.4060329
N 1.3148124 0.79885 0.9737912
H -1.1973162 -2.0789807 -0.3341322
H 1.41127 1.9530513 -0.8688878
H -1.3563979 -0.13035078 0.9233122
H -0.6798517 0.41911557 -1.6728495
