11

O 1.6815472 0.6611407 -0.5164842
C 0.7601912 -0.04900827 0.25035197
C -0.33706143 0.6916112 1.0427068
O -1.3524735 -0.14613292 0.41808772
C -0.42418557 -0.68701285 -0.43898466
N -0.5586056 -1.3741504 -1.4787672
H 1.2598537 0.9009901 -1.3514752
H 1.3158813 -0.7555143 0.87282175
H -0.3442133 0.578782 2.1285794
H -0.45989642 1.7379973 0.75019276
H -1.5410374 -1.5587021 -1.6770291
