10

C 0.55477184 0.8032097 -1.6331004
N 0.6298669 0.39217624 0.6924018
N 0.1731934 0.25242382 -0.5091532
C -0.210649 -0.4767603 1.4672598
N -1.1673932 -1.0877872 0.53333205
N -0.95861876 -0.68074024 -0.601799
H 0.019149818 0.53623956 -2.5325706
H 0.3499921 -1.2827687 1.9518511
H 1.3893255 1.4893436 -1.6063713
H -0.77963847 0.05466341 2.2381501
