10

N -0.7854326 -2.2531698 -0.06724918
C 0.91112465 0.7766755 -0.44990528
C -0.273756 1.1379002 0.43988994
C -0.42280108 -1.0446068 -0.1395653
C 0.6602744 -0.5571001 -1.0404489
O -0.97934484 -0.02628072 0.6392115
O -0.6057024 2.1797864 0.9103778
H -1.508365 -2.367554 0.6441455
H 1.7881145 0.5834777 0.20047493
H 1.2158886 1.5708715 -1.1369313
