10

N -1.34575621 -1.87980780 0.59452819
C -0.54167110 -0.96252793 0.26377066
C 0.30293532 0.74581752 -0.95668641
C 0.89203477 0.79896867 0.44912217
C 0.55282271 -0.46302846 1.14404908
O 0.51982702 1.41343541 -1.91810121
O -0.60291444 -0.28971580 -0.95966523
H -2.03902833 -2.02936001 -0.13950539
H 0.32423002 1.54915244 1.03585302
H 1.93752027 1.11706605 0.48663509
