10

N -1.5408624 -1.4178363 0.7489003
C -0.6802988 -0.6406458 0.26230454
C 0.14472273 0.33374628 1.0104138
C 0.9266856 0.9632618 0.13822044
C 0.6383893 0.41920802 -1.21788
O 1.1046448 0.69577664 -2.2793372
O -0.34256977 -0.54917294 -1.073072
H -1.9738214 -1.9932791 0.027376631
H 0.06147877 0.44865307 2.082449
H 1.6616312 1.7402884 0.30062446
