10

C -0.34539455 -1.1441507 0.65191007
C -0.1809052 1.2683805 -0.04410386
O 1.0262079 -0.4113135 -1.1533705
C 0.14696978 -0.18938121 -0.13810192
H -0.8946777 1.4587439 0.7590207
H -1.0460112 -0.9046353 1.4414757
H -0.063457064 -2.187295 0.52882254
H 0.73143077 1.845647 0.14142373
H 1.2293676 -1.3540814 -1.1948138
H -0.6035306 1.6180856 -0.99226236
