10

O -1.3899232 1.1027478 -2.048617
C 1.2562956 -0.32907557 -0.21493809
O -2.1827717 0.34711424 1.1381639
C -0.19265188 0.09112948 -0.106180005
C -1.0197474 -0.022662519 1.0838205
C -0.8588859 0.6428956 -1.1313012
H 1.4428428 -0.9596413 -1.0880181
H -0.5126175 -0.48742166 1.9540616
H 1.9365369 0.52767843 -0.26149833
H 1.5209227 -0.9127646 0.67450666
