10

N -0.79960835 0.8046065 -0.6137506
C 0.9548103 -0.4670642 0.27539572
O 1.2064048 -0.21409582 -1.1365634
C 0.2885568 0.5373286 -1.6419619
C -0.45081356 0.02906658 0.5170243
N -1.0846767 -0.2252276 1.5876706
H 1.6875443 0.10224086 0.85596865
H -0.8781414 0.72324175 -1.889539
H -1.989532 0.2453049 1.5848794
H 1.065456 -1.5354015 0.46087632
