10

N 1.1870257 -0.1472301 0.0010075107
C -1.0043553 -0.2434499 0.561153
O -0.1341822 -0.9473073 1.4819669
C -0.057178408 0.30854687 -0.46625236
C 1.148345 -0.8849931 1.1509331
N -0.37799874 1.0042071 -1.4704044
H 2.0593762 0.050782446 -0.46839252
H -1.7184591 -0.9512705 0.13613632
H 0.4334395 1.2691113 -2.0297942
H -1.5360125 0.54160327 1.1036464
