9

O -0.46719313 1.3842247 0.89089537
C -0.4822097 1.3216428 -0.42836404
C -0.122125104 -0.13967441 -0.6846307
O 0.88305014 -0.26917213 -1.6305977
C -0.03186505 0.1456349 1.4509121
N 0.21786302 -0.7503848 0.61600274
H 0.031407285 0.13016693 2.5314348
H -1.0772215 -0.61022043 -0.9944724
H 1.0482941 -1.2122175 -1.7511803
