9

O -1.8958628 -0.27504936 -0.54052514
C -0.6347631 -0.21922532 -0.061496653
C 0.13701007 -1.3682457 0.35462996
O 1.4036511 -0.7982834 0.3885135
C 1.3436503 0.4751532 -0.0828623
N 0.18047757 0.90343136 -0.37784758
H -0.62531793 -0.36523402 1.1486725
H -2.1897352 0.6342111 -0.68530387
H 2.28089 1.0132421 -0.14378035
