11

N -0.7297635 0.625555 2.01886
C -0.94785094 0.21403144 -0.48199138
C 1.1532906 -0.5023834 -0.6952619
N 0.9417579 -0.18062587 0.5942728
C -0.378719 0.28368604 0.82129514
N 0.02399843 -0.2689243 -1.3400385
H -1.9409451 0.45162886 -0.8266844
H -0.10561735 -0.42878902 -2.3268664
H 2.0673819 -0.8793661 -1.1259706
H -1.6954991 0.93560404 2.0204194
H 1.611966 -0.25041667 1.3419658
