11

N -0.51275295 0.95562035 0.016912095
C 0.735073 0.34094247 -0.057202257
C 0.51769537 -1.0254817 0.0044657183
N -0.87649214 -1.1645882 0.14735693
C -1.4558187 0.04334532 0.15557103
N 1.5890472 1.3686377 -0.098874584
H -2.5191495 0.20942989 0.24176165
H 1.1676431 -1.8844303 -0.0069774715
H 0.22769943 1.9565384 -0.0891919
H 2.4970498 1.2413292 -0.52069736
H -1.3699945 -2.0413432 0.20687616
