11

N -0.35659143 0.4926929 1.9629383
C -0.1576496 0.18224889 0.6132501
C 0.52479804 -0.8675428 0.05238896
N 0.34600493 -0.71238655 -1.3139548
C -0.42070085 0.38611794 -1.494146
N -0.73867804 0.9563229 -0.3554569
H -0.7517594 1.4197698 2.0483634
H 0.47714898 0.41302747 2.5277183
H 1.083119 -1.6912773 0.4684192
H 0.71245414 -1.3103617 -2.0341191
H -0.71814585 0.73138833 -2.4754016
