11

N -0.90921695 1.50524107 1.38102981
C -0.41633547 0.67346276 0.52109904
C 0.84419117 -1.16288129 -0.03009688
N 0.33233418 -0.67029368 -1.14405410
C -0.44009361 0.44773418 -0.88453279
N 0.41508347 -0.38069077 0.97748354
H -1.47683055 2.19814920 0.90513989
H 0.63085631 -0.49711818 1.95369111
H 1.48347466 -2.02779635 0.05007418
H 0.48559710 -1.06588654 -2.05849549
H -0.94906040 0.98007947 -1.67133844
