11

N -0.69600016 0.4045624 1.9825885
C 0.02212903 -0.26288882 1.0155323
O 0.740011 -1.2132504 1.244688
N -0.123983376 0.28399822 -0.25241008
C 0.5237418 -0.2309785 -1.364624
N 0.40371034 0.3552007 -2.4845235
H -0.7245704 -0.085286945 2.8649774
H -1.5531962 0.86971927 1.7211546
H -0.6160426 1.1553236 -0.39321214
H 1.0914633 -1.1350161 -1.139259
H 0.93273735 -0.14138336 -3.1949122
