11

N 0.21123587 -0.4869729 -0.06849824
C 0.731626 0.60012597 0.6066086
O -0.10753553 1.6575025 0.5692096
N 1.84068 0.6926324 1.2153314
C -1.0046989 -0.5481732 -0.73378193
N -1.3351898 -1.6242131 -1.316886
H 2.3772547 -0.16973302 1.1959766
H 0.7627859 -1.3321118 -0.09887364
H -2.2459671 -1.5199459 -1.7559372
H -1.5772156 0.3798248 -0.6849609
H 0.34702435 2.3510644 1.0718116
