10

O 0.3358955 -0.5103495 -2.2368853
C 0.14765108 -0.32541797 -1.0693958
C -0.90801275 0.48358393 -0.2659017
C 0.008399696 0.27034432 0.9406082
O 0.07302269 -1.1280903 1.1344159
C 0.97550833 -0.55343884 0.187801
H -1.9094671 0.060587693 -0.1716504
H -0.9626081 1.511527 -0.6327089
H 0.20398486 0.9196558 1.7852898
H 2.0356257 -0.72840214 0.32842708
