10

O 1.41238526 0.11890464 -0.28113963
C 0.63307212 1.16408942 -0.00234093
C -0.71013906 0.68248090 0.23809623
C -0.63710375 -0.79244168 -0.02934878
O -0.78298801 -0.27068211 1.31904308
C 0.75312319 -1.01593514 -0.37392746
H -1.46770803 -1.39486906 -0.37949554
H -1.60957776 1.27887558 0.10768220
H 1.11103790 2.12696695 0.07442116
H 1.29789804 -1.89738951 -0.67299044
