10

C -0.08019405 0.32591972 -1.4436464
N -0.62636954 -0.8449994 -0.05004531
N 1.1771784 -0.19369651 1.0060169
C 0.07058089 -0.011587159 1.7352719
N -1.0505416 -0.35935822 1.1033067
N 0.731163 -0.7439984 -0.10502507
H -1.0296 0.84323597 -1.338153
H -0.053703777 -0.37721896 -2.2662024
H 0.7757843 0.9921967 -1.3894329
H 0.085702404 0.36950642 2.7479095
