10

C -0.35511497 -1.3213688 0.80324465
N 0.026514908 -0.094203494 0.13513833
N -0.49265543 0.30780575 -1.0134223
C 0.16129355 1.4407002 -1.1992955
N 0.9355992 0.7191252 0.63246113
N 1.0355935 1.7077572 -0.20713426
H 0.25711805 -1.3966781 1.701109
H -1.4127316 -1.2795374 1.0645717
H 0.012643493 2.083015 -2.056548
H -0.16826051 -2.1666152 0.1398754
