10

C 0.52422156 0.92508454 -1.55220890
N 0.01277720 -0.07768341 0.14711137
N -0.54096766 0.44685559 -0.93389107
C -0.73715280 -0.75042494 1.18776786
N 1.66789534 0.69748671 -0.87374499
N 1.32182196 0.05774456 0.20480761
H -1.27837218 -1.59282445 0.75549540
H -0.01424621 -1.09752482 1.92505267
H 0.48283269 1.44125772 -2.50162936
H -1.43881001 -0.04997158 1.64123988
