10

C 0.25766274 -0.62466747 -1.4358325
N 0.11370417 -0.06701917 -0.10612635
N -1.0270164 0.41176692 0.36412662
C -0.66231024 0.7835372 1.578627
N 0.6403246 0.54140747 1.8275427
N 1.1154419 -0.00043093346 0.7440917
H -0.3826608 -1.5022899 -1.5346525
H 1.303701 -0.9031407 -1.5553622
H -0.024055881 0.1249927 -2.177072
H -1.3347912 1.2358438 2.294658
