10

N 0.52763873 0.15490182 1.3886095
C 0.20712687 1.2250206 -0.4766379
N -0.19383772 -1.9340525 0.57908326
O 0.22058901 2.284284 -1.2676692
C 0.039913144 -0.5960906 0.43115258
O 0.64735174 1.413157 0.7479469
N -0.19088851 0.025665712 -0.77063656
H -0.10758866 1.9843822 -2.1276534
H -0.9058603 -2.296894 -0.035129305
H -0.24444424 -2.260374 1.530934
