10

N 0.2264434 1.7678368 0.39520434
C -0.20247181 0.48040402 0.16407578
N -1.4022394 0.04864363 0.35757962
O -1.3352774 -1.3390361 0.10449066
C -0.07997519 -1.6989218 -0.26124126
O 0.28279132 -2.8106349 -0.5261502
N 0.64420235 -0.5142002 -0.25227174
H 0.7515533 2.1745622 -0.36695513
H -0.532975 2.368078 0.6849855
H 1.6479485 -0.47673127 -0.29971755
