10

N 0.10521698 1.3922834 -0.52788776
C -0.5256664 0.33439606 -0.07082036
N -1.8749975 0.28201082 0.07890794
O 1.47647 0.97458506 -0.61408824
C 1.4898763 -0.2649992 -0.18461579
O 2.3932636 -1.1357749 -0.031538956
N 0.30611977 -0.7314627 0.17112343
H -2.21022 -0.33194616 0.8050002
H -2.3381367 1.1762117 0.030904269
H 1.1780744 -1.6953043 0.3430153
