11

N -0.35857753 -1.57050142 -0.01534688
C 0.18216564 -1.02714199 -1.02027900
O 0.72403006 0.20194332 -0.96763253
C 0.68592932 0.81765442 0.31383052
C -0.72998049 1.07640114 0.79600165
O -0.98816741 1.33883864 1.94232174
H 0.29262452 -1.43014359 -2.02928013
H -0.72241021 -2.48766249 -0.25236881
H 1.19025672 1.77976350 0.17961509
H 1.21738505 0.22371812 1.06270049
H -1.49325542 1.07713034 -0.00956227
