11

N -0.1154711 1.253255 0.077731855
C 0.7470741 0.26821843 -0.3851516
O -0.8343239 -0.7556314 0.90329355
C 0.75134057 -0.9781393 0.5191242
C -1.1512877 0.2260583 0.12187757
O 1.0668473 -2.0574844 0.012872596
H 1.5460811 0.5086225 -1.0884458
H -0.66256034 -0.32583544 -1.0869886
H -0.30183622 2.006669 -0.5765169
H 1.1548535 -0.64308476 1.5075269
H -2.200717 0.49735206 -0.0053238394
