11

N 0.025344964 0.33587426 1.8955063
C -0.35636947 -0.9764429 -1.4408107
C 0.08323697 0.13822472 0.534008
N 0.47563285 -1.0471824 -0.2676154
C -0.060771514 0.94616544 -0.6996944
N -0.7016092 0.20261063 -1.7527672
N 1.2183009 0.27101934 -0.2984353
H -0.0592683 2.0319076 -0.7056975
H 0.83287716 -0.028603781 2.3845828
H -0.8398279 0.017511701 2.3141997
H -0.61754644 -1.8910844 -1.9632761
