11

N -0.00670127 -0.40019988 -1.11095941
C -1.42010935 -0.12952372 -1.05966437
C 0.46901935 -0.13625722 0.26954369
N 0.60608867 0.91135573 -0.66996974
C -0.45534082 1.01591473 0.38610422
N 1.47031534 -0.72014999 1.01289423
N -1.74591002 0.72419745 -0.18120627
H 1.18008079 -1.56470103 1.49005292
H -2.08496192 -0.64268321 -1.74697142
H 2.32350131 -0.86272211 0.48763695
H -0.33598210 1.80476928 1.12253909
