9

O 0.80504158 1.13482015 -0.75605499
C 0.48016341 -0.44632815 0.79919053
N -0.68315810 -0.34300279 -0.04424258
C -0.52385204 0.59611146 -0.99328785
C 1.44411182 0.58840439 0.24981570
O -1.21706804 0.99364288 -1.87611421
H 0.95405945 -1.43469985 0.76130517
H -1.53273170 -0.87721902 0.00968329
H 0.27343369 -0.21172936 1.84970481
