10

C 1.2746658 0.5098862 -0.113129005
C -0.050602593 -0.046226636 -0.18575922
C -0.8138323 -0.16068779 1.0355396
C -1.4634918 -0.26559758 2.0389936
N -0.46807355 -0.40987793 -1.3497839
N 1.767714 0.50202334 -1.3441415
N 1.3793963 0.15102774 -2.3812532
H 1.8220042 0.87979037 0.7367583
H -1.4070126 -0.8016591 -1.3708447
H -2.0407674 -0.35867855 2.9336202
