12

C -0.08366277 0.066277415 -0.043831453
N 1.2165313 -0.24057885 0.37909168
C 1.4798764 -1.4598355 0.6075587
N -0.4108793 1.2652318 -0.26938027
C -1.7636881 1.5194076 -0.6952752
O 2.685574 -1.8554406 1.0211574
H 0.8018274 -2.3109455 0.5049629
H -0.7862604 -0.7809485 -0.16030508
H -2.395992 0.6204856 -0.76974285
H -2.2327526 2.2202296 0.004093423
H 3.2316837 -1.0566952 1.0949849
H -1.7422572 2.0128121 -1.673314
