12

C -1.1203892 -1.0148067 -1.7011324
N -1.0017067 -0.58687764 -0.3194055
C 0.05374656 0.020647472 0.008137777
N 0.2447459 0.46908656 1.3119116
C 1.351954 1.1493459 1.7461277
O 1.5015339 1.5431721 2.8781443
H -1.9969052 -0.53530097 -2.1491792
H -0.23974584 -0.78721386 -2.3195548
H -1.2973397 -2.09534 -1.7264564
H 0.8927423 0.2508699 -0.66283727
H -0.4892081 0.2848298 1.9877007
H 2.1005719 1.3015879 0.94654316
