11

N -0.5754532 -0.6371237 -0.44524065
C -1.3404477 0.36978406 -0.1762048
C 0.56301147 1.0439643 0.51313925
O -2.6472077 0.4788693 -0.40250415
C 0.6691862 -0.20189792 -0.0038140744
O -0.77649635 1.4179748 0.39306566
N 1.7763189 -1.0174378 -0.19651811
H 2.511864 -0.89111197 0.48254222
H 1.2292728 1.7713379 0.9451382
H 1.5090723 -1.988019 -0.28037927
H -2.9191206 -0.34634 -0.82922447
