11

N -0.9528827 0.42321754 1.6256177
C 0.4300869 -0.1164538 -1.5152898
C -0.14299111 0.10852487 0.5514609
O 1.5502404 -0.34372464 -0.8680712
C 1.1786685 -0.2088935 0.49187744
O 0.118427984 -0.09862938 -2.7456002
N -0.61307985 0.15379839 -0.75391257
H 1.9596559 -0.34892118 1.2194453
H -1.0100998 0.19342372 -2.0017745
H -1.9172038 0.14856504 1.4848611
H -0.6008222 0.08909296 2.5113857
