11

C -1.60204887 0.57324032 -1.19547417
N 0.16610779 0.12186972 0.78234262
C 1.45008830 -0.55220110 0.88141375
C -0.44931817 0.22506255 -0.41121559
N -0.22275617 0.11037457 -1.64870926
H -2.42945961 -0.12589385 -1.33252176
H -0.42494707 0.16806776 1.59347034
H 1.34657299 -1.64086288 0.96563517
H -1.85589240 1.61972733 -1.37214047
H 2.02989315 -0.32462582 -0.01618000
H 1.99175980 -0.17475885 1.75337944
