11

C -1.1438308 -0.31203642 0.7051913
N -0.06003311 0.65910614 0.6381084
C 1.1026237 0.18362656 -0.08220432
C 0.8347912 -0.17190357 -1.4975872
N 0.5574524 -0.42133662 -2.5905402
H -1.5126315 -0.63919115 -0.2790644
H -1.9741237 0.1287462 1.2640102
H -0.8012546 -1.195084 1.2561256
H -0.38995004 1.5199823 0.21779394
H 1.8838944 0.9494531 -0.058162984
H 1.5030618 -0.7013628 0.42632973
