11

C -0.5413572 0.32056114 -0.16065864
N 0.4496628 -0.055560507 0.67023903
C 1.6041781 -0.76765907 0.14793397
C -1.8563449 0.8604073 -0.37149227
N -0.79115623 0.47211444 -1.3896852
H -2.045569 1.9264052 -0.23501772
H 1.4244941 -1.8455513 0.053832218
H 2.460989 -0.6029632 0.8074377
H 0.20039377 -0.17184773 1.6365467
H 1.8404813 -0.36514822 -0.8398841
H -2.745772 0.22924207 -0.31925184
