15

N -0.4728841 -2.24115 1.29819
C -0.31781873 -0.92626107 0.90278953
O -0.7968039 -0.0029659031 1.5501585
N 0.41322175 -0.7583327 -0.24740526
C 0.9331714 0.54133177 -0.6729236
C -0.1357852 1.5836511 -1.0144731
O -0.6095466 2.3000665 0.09025769
H -1.1872715 -2.3436906 2.0046182
H -0.47445735 -2.9570363 0.5883925
H 0.97103894 -1.5528909 -0.5282243
H 1.5281938 0.34293738 -1.5700948
H 1.5986265 0.97032565 0.08832701
H -0.94111526 1.0821861 -1.5764853
H 0.31785893 2.3216524 -1.6856703
H -0.82642895 1.6401769 0.77254283
