15

N 1.93215514 -0.61094078 -1.66424336
C -1.61317232 0.05661534 0.95344960
O -1.21182254 -0.99532966 1.78396324
N 0.30602231 0.61709105 -0.57909444
C 1.07719514 -0.51236091 -0.58810792
C -0.48528065 1.02406680 0.58099408
O 1.03508142 -1.36893427 0.28891487
H -2.36629031 0.62163539 1.51330662
H -0.41279013 -1.37454639 1.37683397
H 2.32019635 -1.53640069 -1.76749782
H 1.67357209 -0.15105089 -2.52352594
H 0.14793851 1.16517336 1.46617976
H -2.09002138 -0.29348246 0.02258182
H 0.61205516 1.36603410 -1.18192812
H -0.92483907 1.99243033 0.31817324
