11

C -0.31191156 -1.23215466 0.79060758
N -0.01209540 -0.04209397 1.24273734
C 0.38411069 0.98823319 0.23460775
C -0.18033508 -1.03975804 -0.70983563
N -0.06152758 0.41116239 -1.00565519
H -1.00695945 -1.49022708 -1.26814671
H -0.99240786 0.76202974 -1.21213781
H 0.05154657 0.15094996 2.23438174
H -0.07822732 1.96180919 0.43675812
H 1.47490493 1.10264795 0.27119337
H 0.73290189 -1.57259865 -1.01451050
