11

C -1.1456261 -0.31258994 0.7064389
N -0.059836738 0.65911317 0.63774383
C 1.1037029 0.18399292 -0.08175967
C 0.8339803 -0.17307416 -1.4980806
N 0.559404 -0.42217952 -2.59242
H -1.5137626 -0.6382057 -0.27748352
H -1.976547 0.12743835 1.265667
H -0.8016642 -1.1962364 1.2554106
H -0.39070943 1.5219446 0.22085099
H 1.8855696 0.9508213 -0.061383598
H 1.5054891 -0.7010246 0.42501613
