12

N 2.1674552 0.39218572 -0.6934637
C 0.8853853 0.16585723 -0.2819769
N 0.7052629 -0.84042317 0.5874004
C -0.53972435 -1.0221218 1.0072973
C -1.6076319 -0.23859538 0.58585596
C -1.293126 0.7639693 -0.32295963
N -0.061867133 0.9829623 -0.77138746
H 2.289049 0.96202946 -1.514312
H 2.8319778 -0.34758434 -0.5327834
H -0.69134855 -1.8385592 1.7125497
H -2.6187546 -0.40121108 0.9389967
H -2.0666776 1.4214908 -0.7152168
