12

N 0.2888486 0.74005455 -2.0279472
C 0.27672574 0.43109035 -0.6822868
N 0.993143 1.1245481 0.15565129
C 1.0314339 0.8394634 1.5211072
C 0.15989955 -0.2517118 1.8998898
C -0.5568469 -0.9722614 1.0066875
N -0.468962 -0.6425543 -0.3229086
H -0.6001604 0.7525527 -2.505859
H 0.85850066 1.5562546 -2.205944
H -0.85302997 -1.256309 -1.0265598
H 0.08710959 -0.5167327 2.9519348
H -1.2166617 -1.8043947 1.2362348
