12

N 1.39656387 0.42014625 0.38503934
C 1.26900622 -0.37005151 1.52807296
N -0.70551823 -0.18956660 -0.45097655
C -0.96477994 -0.94719039 0.66394312
C -0.01599808 -1.02811250 1.62518823
C 0.45937748 0.50089473 -0.51575972
N 0.64223248 1.28080343 -1.64035486
H 1.52817730 1.76665812 -1.60272701
H -1.31413690 -0.24108910 -1.25487753
H -0.22593368 -1.62953270 2.50641119
H -1.93915750 -1.42753023 0.68279429
H -0.12983296 1.86457032 -1.92675329
