10

N 1.13034447 -0.07744281 -0.14817427
C -0.04548483 -0.80090854 -0.63040314
C 0.68012849 1.10386520 0.80625611
C -0.66578564 0.91252671 0.76539876
C -1.10397236 -0.20315408 -0.07584641
H 0.05167925 -1.64504264 -1.29850448
H 1.68598770 0.34349277 -0.89415228
H 1.76809035 -0.65976040 0.39616530
H -1.36824503 1.53395175 1.30970757
H -2.13274177 -0.50752804 -0.23044718
