10

N -0.15873346 -0.75053346 -0.84418225
C 1.0602329 -0.28666282 -0.4208425
C 0.83659595 0.59675485 0.60799116
C -0.5706177 0.665085 0.8106934
C -1.1565466 -0.17798232 -0.101072885
H -0.29917675 -1.4128283 -1.5887855
H 1.9760494 -0.62226164 -0.8850245
H 1.5925676 1.1377599 1.1593422
H -1.0862727 1.267329 1.5454413
H -2.194098 -0.4166603 -0.28356045
