10

N -0.901515 0.07676187 0.675618
C 1.1685264 0.549665 0.047362432
C 0.32167175 0.8983825 1.0839632
C 0.53876895 -0.238049 -0.967992
C -0.73289776 -0.5207656 -0.5763077
H 2.201294 0.87414217 0.0096439775
H -1.8054378 0.33568543 1.0518025
H -0.274079 -0.27366704 1.5922374
H -1.5120918 -1.1165968 -1.0290874
H 0.99576026 -0.58555865 -1.8872403
