10

N -0.13081622 -1.2017117 0.51423943
C 0.5477665 -0.18533467 0.059642944
N 1.9172673 -0.13093534 0.14465395
O -1.4647516 -0.92620933 0.3488773
C -0.26052234 0.883105 -0.5466736
C -1.5324777 0.35079172 -0.2012434
H -2.4918382 0.5667065 -0.66374356
H 2.3914585 -1.0179547 0.24226293
H 2.346421 0.5062479 -0.506196
H -1.3225071 1.1552948 0.60817987
