10

N 0.4205709 -0.52345073 -1.0801173
C 0.5631434 -0.99600863 1.0956043
N -0.70135057 1.5355946 -1.0530784
O 0.91004217 -1.4373128 -0.24871834
C -0.17030768 0.44272125 -0.3946469
C -0.15954724 0.26138967 1.0307094
H -0.028595226 -1.7966807 1.552935
H 1.5053298 -0.9005571 1.6493453
H -0.9317551 1.3907373 -2.026183
H -1.4075305 2.023567 -0.5258503
