10

O 1.2432227 0.5098411 -1.7538102
C 0.47352967 0.086652465 -0.7364734
N -0.063432276 -1.0914043 -0.60723555
C -0.7514074 -1.023999 0.59154654
C -0.6133957 0.20327955 1.1639701
N 0.1915727 0.9243525 0.28570282
H 1.3063618 -0.2432261 -2.3589673
H -1.30575 -1.8750936 0.9631423
H -0.9912791 0.63470805 2.0792015
H 0.5105776 1.874889 0.3729232
