10

O -1.8470013 -1.33138 0.73423326
C -1.3117443 -0.34133753 0.009054863
N -0.04966416 -0.73562974 -0.3231482
C 0.9810294 0.13708547 -0.5070587
C 1.1532555 1.3725088 0.25267273
N 0.022342281 1.9012897 0.3214538
H -2.7626917 -1.059456 0.89091647
H 0.1188019 -1.7338837 -0.44456452
H 1.553942 -0.005104849 -1.421095
H 2.1417305 1.795908 0.48753527
