11

C -1.1281747 -0.25939435 1.0225874
N -1.3315831 -0.44799706 -0.40197992
C 0.82825816 0.17073835 -0.9046752
C 1.9790299 0.7741893 -0.7272469
N -0.21065468 -0.39754802 -1.2172682
H -0.80346847 0.7696668 1.2030462
H 2.0917308 1.8254966 -0.97020966
H -0.37511456 -0.94008464 1.4442583
H -1.805432 -1.3100872 -0.6265384
H 2.838613 0.23235227 -0.35052717
H -2.0832045 -0.4173319 1.5285536
