11

C 0.4524734 -1.3812169 1.193235
N 0.18204482 2.0219138 0.5154839
C -0.116890974 1.7967862 -0.60998756
C -0.40664262 1.0805796 -1.7199166
N 0.21664296 -0.21838763 0.3622412
H 0.38488984 0.8693538 -2.4308937
H -0.78515697 -0.030972658 0.46800402
H -1.436788 0.9457994 -2.0294878
H 0.20258698 -1.1744815 2.2456083
H -0.19039884 -2.2198634 0.8821194
H 1.4972394 -1.689511 1.1235933
