11

N -0.82420796 0.9177663 -1.079283
C 0.8281708 -0.55225956 -0.1762913
C -1.1104591 0.77434367 0.32851896
C -0.12312852 -0.20967771 0.9661679
C 0.20107336 0.20351732 -1.3280966
O -2.0036798 1.3540968 0.8811201
H 0.35942075 0.26052463 1.8269992
H 1.8542191 -0.20379002 -0.014422616
H 0.60898495 0.15064773 -2.33917
H -0.6831141 -1.073874 1.3354493
H 0.89272046 -1.6212949 -0.40099165
