11

N 0.32595095 2.9292996 0.4496228
C -0.20616518 1.9092207 0.34800392
C -0.85474616 0.60084695 0.20429467
C 0.009019012 -0.35636666 -0.5982304
C 0.9152766 -1.2907996 0.06760522
O -0.33148518 -1.7214572 -0.46867892
H -1.8247936 0.7337919 -0.28485408
H -1.0474656 0.17554174 1.1949977
H 0.2383947 -0.03703297 -1.6140618
H 1.8010895 -1.6506363 -0.45396557
H 0.97492486 -1.2924083 1.1552668
