10

O 0.6522903 -1.8178043 -0.982121
C 1.8918589 1.0764341 0.8761634
O 0.5886906 1.0251635 0.8987572
C -1.253108 -0.53293246 0.17454408
C -0.030178415 -0.9382931 -0.5401619
C -0.1597924 0.48639548 -0.20855716
H -1.29896 -0.8088886 1.227403
H -2.2142322 -0.45324662 -0.32708395
H 2.203583 0.73832905 -0.14360137
H -0.38015184 1.224843 -0.97534233
