10

O 0.9570091 2.0910332 -1.1633922
C 0.6719614 1.1149977 -0.5508274
O 1.1266645 0.75373757 0.70802593
C 0.49935973 -0.54032785 0.5662412
C -0.9660005 -0.36749217 0.50782305
C -0.11985913 -0.14843956 -0.74355245
H 1.0767573 -1.4083929 0.84882486
H -1.558847 -1.2765031 0.47729033
H -1.4279301 0.47442704 1.0182159
H -0.2591154 -0.6930403 -1.6686497
