10

O -0.05428397 -0.71093506 -2.5708666
C -0.15996188 -0.78210413 1.2571936
O 0.757158 -1.2586567 -0.4552293
C 0.24532397 -0.5252954 -1.4357802
C -0.7376213 0.49859285 0.63887227
C 0.3217431 0.452091 -0.38889503
H -0.64367115 1.376787 1.278116
H 1.2200805 1.0552832 -0.2893825
H -1.7511833 0.3858329 0.25002608
H 0.80241597 -0.4915956 1.7159457
