10

C 0.178115 0.48889628 -0.010225219
C 0.63482076 -0.18014167 1.202355
O -0.090641566 1.7163054 0.2856655
C -0.76721567 -0.3179837 -0.9228266
H 1.4441818 -0.9030624 1.2004219
H 1.2380534 0.38993225 -0.47420347
H -0.38257724 -1.31989 -1.1398267
H -1.7409837 -0.40599218 -0.43383834
H -0.8967766 0.2322784 -1.8582288
H 0.3830238 0.2996578 2.1507065
