10

C -0.48778944 0.09838777 -0.20639201
C 0.54277267 0.79044572 -0.97992508
O -0.01366362 -0.43343722 -1.43530428
C -0.16261604 -0.68624097 1.03909327
H 0.28737797 1.67003308 -1.56929208
H -0.80459316 -1.56926603 1.12021817
H -1.50477750 0.48990484 -0.26727458
H 0.87892523 -1.02175057 1.01798191
H 1.58073061 0.73356457 -0.65136805
H -0.31636648 -0.07164135 1.93226256
