10

C 0.8113414 -1.0161428 -0.020774517
C -0.5628217 0.08155464 1.1739662
N 0.6530158 1.1466526 -0.8417599
C 0.19305275 -0.08138147 -1.069293
C -0.47470406 0.93239343 0.05836363
N 0.3377492 -0.9281621 1.1704602
H -0.118931614 -0.4471147 -2.05508
H -1.2477425 1.6849355 -0.10029859
H 1.7511374 -1.5138818 -0.24090768
H -1.3420963 0.14114672 1.9253238
