10

C -0.48978534 0.37036103 -0.9631848
C 0.32617402 -0.826782 -0.66737574
N -1.0062321 -0.71747965 -0.0918083
C 0.32284564 0.98597527 0.90437704
C 0.19262724 -0.5008885 0.7801184
N -0.09667183 1.5325583 -0.16624038
H -0.9930022 0.53090054 -1.9109838
H 0.6781498 -1.6892271 -1.2138209
H 0.69934106 1.5369962 1.7598914
H 0.36655384 -1.2224141 1.5690273
