12

N -0.37382302 -0.7059124 0.9804063
C 0.18882857 -1.3134681 -0.21683745
C -0.17625995 0.0033424138 -1.1153386
C 0.13248515 1.6834168 0.80897766
N 0.8023996 2.5567884 1.1656793
C -0.66647106 0.5691329 0.30074838
N -0.69082403 -1.2402036 -1.3037764
H 0.9406432 -2.1039596 -0.18753141
H -1.7297163 0.82360446 0.2660396
H 0.19787449 0.6253379 -1.9331832
H 0.2772204 -0.59010595 1.7477022
H 1.0976429 -0.30797318 -0.5128863
