12

N -0.9258567 2.0797215 1.7890153
C -0.8545328 1.2748073 0.9654484
C -0.7607154 0.22272909 -0.06657578
C 0.3933337 0.47529006 -1.0846608
N 1.486817 -0.4101073 -0.6819583
C 1.0058259 -1.1943254 0.19519883
N -0.34491697 -1.0556165 0.51014864
H -1.7331764 0.13519575 -0.5584283
H 0.07231144 0.21361807 -2.0979233
H 0.7242678 1.5168874 -1.0929238
H 1.575884 -1.9892056 0.6690191
H -0.63924176 -1.2689943 1.45364
