10

C -0.21205762 -0.068043545 0.24863558
C 1.2373676 0.15436618 0.50987357
O -1.0274853 -0.27496895 1.2220814
C -0.9440465 -0.14616194 -0.9618661
H 1.8426615 -0.33254546 -0.25994956
H -1.6746727 0.65955955 -1.052421
H 1.4435093 1.2282007 0.4674173
H -0.4555503 -0.39278534 -1.9028817
H 1.5084481 -0.21471247 1.5026271
H -1.7181741 -0.6129087 0.22648332
