10

C -0.35674960 1.09581529 0.72602527
C -0.39019969 -0.82537889 -0.90147521
O 1.47720669 -0.40443206 0.45827031
C 0.22594536 0.03952464 0.15583697
H -1.39538709 -0.48063112 -1.15054726
H -0.44019341 -1.86305797 -0.55405173
H -1.35731485 1.39643573 0.44393228
H 0.23045922 -0.81099387 -1.80406692
H 1.85775107 0.16793802 1.13727794
H 0.14848226 1.68478025 1.48879829
