10

C -0.79445946 1.0367215 0.38631186
C 0.14518799 0.10568241 0.21130632
O 1.2741764 0.0017728899 0.96549886
C 0.117670104 -0.96901965 -0.83265734
H 0.15438561 -1.9547379 -0.35622075
H -1.6725845 1.0637575 -0.24554682
H 0.9978794 -0.8840187 -1.4792659
H 1.274645 0.7046945 1.6283517
H -0.71206975 1.7927268 1.1645339
H -0.7848304 -0.8975789 -1.4423119
