11

O 1.7523787 -0.91647357 -1.8362452
C 0.7308703 -0.26742303 -1.9188892
N -0.030067585 0.084226325 -0.855214
C 0.3419132 -0.32235774 0.4899281
C -0.57982075 0.25287396 1.4716165
C -1.3436505 0.72398186 2.2685025
H 0.32123697 0.100657165 -2.8787265
H -0.8766291 0.6173032 -0.9920865
H 0.3325116 -1.4171433 0.5688352
H 1.3675704 0.004059343 0.6969796
H -2.0163136 1.1402959 2.9852993
