10

N 0.3820961 0.85293365 -1.802679
C 0.75105697 0.58752835 0.6980916
O 0.11316121 -0.28136727 1.5765312
C -0.7373439 -0.9811111 0.90824556
C 0.24836558 0.40402284 -0.597438
N -0.71694046 -0.640159 -0.36850333
H 1.0865293 1.5824046 -1.8295174
H -1.3467761 -1.7284733 1.3938407
H -1.2747076 -1.0260639 -1.1161963
H 1.494559 1.2302849 1.1376249
