10

N -0.91439633 -0.03510976 -0.47143229
C -1.02161900 -1.08889686 0.31900329
O 0.04790540 -1.23752837 1.02159299
C 0.36268034 0.60552869 -0.28922329
C 0.93641816 -0.22194625 0.68590746
N 0.61736009 1.66131563 -0.99098024
H -1.59798532 0.31211875 -1.12809812
H -1.85037314 -1.77419230 0.41542550
H 1.54144304 2.01603990 -0.76890888
H 1.87856719 -0.23732911 1.20671389
