11

O -1.15805661 -0.17038789 -1.42112157
C -0.47535211 0.92535229 -0.74549174
O -0.80418589 -2.27212886 -0.53380370
C -0.59278140 -1.10597144 -0.60549368
C 0.27117616 -0.08183892 0.12030917
C 1.63432711 -0.23727247 0.65516539
O 0.10094794 -0.00016670 1.56066484
H -1.18908604 1.56307781 -0.21974401
H 0.04032113 -0.90243329 1.91844054
H 0.13798120 1.49181084 -1.44592451
H 2.03470832 0.78995874 0.71699944
