11

O -0.21964233 0.5744543 1.4524355
C -0.21050462 0.07286734 0.1191892
O 1.1099457 0.29541564 -1.4811937
C -1.4823356 -0.4024874 0.6833627
C 1.0357635 -0.6499779 -0.3786286
C 0.03348742 1.0179781 -1.0487847
O -0.4508731 1.9969325 -1.5141144
H -1.2881836 0.7352321 1.5335201
H -1.3319558 -1.4047418 1.1077633
H 1.909951 -0.5684858 0.26991662
H 0.89434737 -1.6671872 -0.7434661
