9

O -0.4831426 -1.4221921 -0.89025104
C -0.6667012 0.5718131 1.9632535
C -0.00063618756 -0.31661734 -0.27007952
O 1.6055417 1.3988674 -0.5514389
C 1.1113675 0.3770778 -0.9586165
N -0.4674756 0.15066124 0.81521046
H -1.4893513 1.29315 2.0537047
H 1.4456003 -0.14204027 -1.8777027
H -1.0552024 -1.9107196 -0.28408018
