9

O -1.1577387 -1.2869433 -1.0789645
C -0.3807622 -0.47250044 -0.34558555
C 0.4799855 -0.78982943 0.6519094
O 1.0342392 0.39344102 1.0813212
C 0.47038767 1.3318044 0.31538293
N -0.3786706 0.88769525 -0.55218744
H -1.6400844 -0.72752464 -1.7023692
H 0.8021916 -1.6918154 1.1432359
H 0.7704517 2.3556726 0.4872573
