9

O 0.22276421 -1.4257162 1.2230397
C -0.05721638 0.035869617 -0.56274146
C -0.20537798 1.101683 1.5466428
O -0.17666788 0.18796349 -1.8982095
C 0.086771384 -1.2952328 0.020090511
N -0.08018534 0.988366 0.31374088
H 0.6446902 1.4655935 2.1306016
H 0.041641947 -2.1449537 -0.679853
H -0.47642016 1.0864276 -2.0933118
