9

N -0.774032 0.2457857 -0.8767838
C 0.57342255 0.31071636 -0.7618964
C 0.87119555 -0.11177469 0.5148087
C -0.3872392 -0.40999523 1.0873579
N -1.3795954 -0.19039026 0.23739032
H -1.3418624 0.48006928 -1.6754429
H 1.1981688 0.6437854 -1.578118
H 1.8467524 -0.19407253 0.97025
H -0.60681015 -0.77412397 2.082434
