10

N 0.22358059 0.83572595 -1.56904928
C -0.18384844 -0.93666363 1.17771308
N -0.25411374 -1.18338070 -0.23812017
O 0.89769746 -1.61204937 0.59937924
C -0.07530427 0.54631007 0.95073452
C -0.01940244 0.26120940 -0.36608196
H -0.07988183 0.32462879 -2.38316159
H -0.79729126 -1.48339873 1.88745429
H 0.10968825 1.40606119 1.57655351
H 0.17887562 1.84155708 -1.63542148
