10

N -1.2218733 0.8082514 -1.0315508
C -0.36666706 0.18145111 -0.18775932
N 0.422765 -0.9806262 -0.61750054
O 1.815061 -0.4719747 -0.49660128
C 0.1506001 0.27164614 1.0543005
C 1.0914276 -0.82922226 0.64755183
H -1.54234 0.27746025 -1.8263152
H 1.4418849 -1.6838936 1.2182361
H 0.091130614 0.96260023 1.8813975
H -1.8819888 1.4643075 -0.64175856
