9

O -0.11535828 -1.8944924 0.77993536
C 0.008069697 -0.43377385 0.08382161
N 0.33372822 1.8431591 -0.91102177
N -0.102484785 0.9803447 -1.697401
C -0.020787524 -0.4262006 1.4164264
N -0.14379533 -0.30641454 -1.1578687
H -1.0530388 -2.1394198 0.8085861
H 0.30499285 2.7151096 -1.4490675
H 0.78867394 -0.33831227 2.1265895
