9

O -1.17327455 -1.69645742 1.58852646
C -0.51976426 -0.07357191 -0.03604172
N 1.25654165 0.47726693 -1.34978033
N 1.47221779 1.70031127 -1.32433028
C -1.07334481 -0.42690556 1.10098677
N -0.11244290 0.22358038 -1.16456237
H 2.46869235 1.80479762 -1.52776841
H -1.50986549 0.30918083 1.76658116
H -0.80875995 -2.31820206 0.94638902
