10

O -0.52551916 -1.35953370 1.42331781
C 0.23228412 -0.78112112 0.41837886
N 0.59978406 0.60816162 0.71242688
C 0.21897017 1.27497783 -0.30645814
C -0.47333411 0.38444525 -1.27576189
N -0.50607461 -0.81608861 -0.83631610
H -0.19224602 -1.01536340 2.26067719
H 0.38020235 2.34365170 -0.41706068
H -0.91469415 0.68000755 -2.22285667
H 1.18062740 -1.31913712 0.24365272
