10

O -1.6222991 -0.092073075 -1.4344923
C 0.17893738 -0.43056673 1.3890021
C -0.5589152 0.063271776 -0.7542047
N -0.7901522 -0.45376408 0.46466562
N 1.6263899 0.6200943 -0.041750357
C 0.7276953 0.6265407 -0.99339217
N 1.3705027 0.085452534 1.1691458
H -0.023948904 -0.86075133 2.3653002
H 0.99606013 1.067423 -1.9466177
H -1.9042698 -0.6256271 -0.21765643
