10

O 1.4466506 -1.2728425 0.87129736
C 0.54897 -0.45542464 0.32263723
C 0.8840704 0.8944733 0.086305186
N 0.0069895075 1.7123644 -0.4540369
N -1.2059155 1.2600236 -0.777191
C -1.4658353 -0.013487109 -0.5354722
N -0.6391544 -0.91939336 0.0077119586
H 1.0248449 -2.1444445 0.95017374
H 1.8597428 1.298196 0.33739623
H -2.4603631 -0.35946506 -0.8088216
