11

N 1.7955945 -0.47553024 1.0582308
C -1.4593637 0.100847386 -0.012114566
C 0.47885063 0.79292995 -0.7116224
O -0.75249785 0.7931048 -1.0936717
C 0.79217035 -0.34587803 0.22428885
O -0.5692779 -0.82231086 0.48351222
H 1.4770571 -0.9721367 1.8852626
H 1.1079903 -0.88398886 -0.7579737
H -2.3302925 -0.38013652 -0.4576524
H 1.1878595 1.3243322 -1.3411729
H -1.7280906 0.86876667 0.72291315
