11

N -0.62813205 -0.71405536 -1.9397588
C -0.325535 -0.27803516 -0.7991867
C 0.70525277 -0.8744053 0.13299699
O 0.43760812 -0.24661943 1.3723248
C -0.13039945 0.9872789 1.0490384
O -0.84721047 0.8101242 -0.16954626
H -1.3318908 -0.12766254 -2.3812764
H 0.59103024 -1.9537181 0.23745479
H 1.7179589 -0.64547217 -0.22849771
H -0.82682276 1.2827414 1.8334194
H 0.63814026 1.7598236 0.89303136
