10

N -0.99910007 1.20125549 -0.34453721
C -0.07967736 0.11260330 0.05086461
C 0.50005610 -0.72512474 -0.91149147
O 1.00678809 -1.09462101 1.32809622
C 1.18538589 -1.47329046 0.01303911
N 0.15935953 -0.03424093 1.33979864
H -1.01831460 1.12511923 -1.36838334
H -0.66479637 2.12988811 -0.07327393
H 1.85637098 -2.32192221 -0.05847781
H -1.94607227 1.08033353 0.02436490
