11

N 0.5679747 1.2528304 1.1695276
C 1.2187233 0.13820255 1.0345118
C 0.56033576 -0.817044 0.14074664
N -0.5809696 1.1346978 0.36223176
C -0.5222653 -0.004488471 -0.35174316
N -0.9325308 -0.47929204 -1.5116895
H -1.8343222 -0.25600895 -1.9134208
H 2.122069 0.0015294246 1.6157861
H 0.1868927 -1.1991849 -1.2427429
H -1.0411216 1.9893552 0.09884294
H 0.2552143 -1.7605969 0.5979493
