11

N 0.29836628 0.30554593 1.9986837
C 0.11593128 0.104055494 0.7637871
C -0.63508856 0.8468703 -0.34275308
N -0.42563424 0.08501854 -1.5744017
C 0.2915595 -0.9166769 -1.2453301
N 0.64572704 -0.99385333 0.0899661
H -0.16974242 1.1597176 2.2979953
H -1.7061179 0.9133964 -0.118814826
H -0.262166 1.8712466 -0.46204785
H 0.6253035 -1.6841686 -1.9368217
H 1.2218615 -1.691152 0.529737
