10

O -1.7680807 -1.1064879 1.2126439
C -0.878651 -0.5474996 0.6023828
N -0.866515 -0.13612358 -0.72248805
C 0.3463919 0.46533507 -1.0516043
C 1.1142203 0.44671506 0.051442623
N 0.37373903 -0.16555297 1.0591245
H -1.6518251 -0.2838328 -1.3319051
H 0.5475935 0.8517826 -2.0382159
H 2.114431 0.8119754 0.21389204
H 0.668696 -0.33631107 2.0047278
