10

O -0.71343782 1.52621264 1.45043748
C 0.89153532 -1.19496793 -0.42928606
N -0.75191208 0.48670875 -0.64305781
C -0.02015492 -0.61075596 -1.22643787
C -0.37213911 0.72586677 0.61691536
N 0.69163414 -0.32314930 0.83870091
H -0.26211596 -0.86791133 -2.24900010
H -1.46387472 1.04389673 -1.08855070
H 1.56906600 0.12730274 1.10148357
H 0.43139909 -0.91320290 1.62879553
