10

O 1.0410687 -1.7403815 1.0761113
C -0.5406422 0.61821496 -1.2225821
N 0.28664896 0.46748927 0.93967474
C -0.34053266 1.2512927 -0.036476083
C 0.5013945 -0.8126226 0.5224702
N -0.05814039 -0.8052716 -0.79268324
H -0.60555875 2.274107 0.19119444
H -1.180771 -0.5678647 -1.0431272
H 0.29035273 -1.4626228 -1.4792248
H 0.60618 0.7776593 1.8446426
