10

O -0.11776618 -2.68540139 0.24797270
C -0.39310305 -1.98146908 -0.67375410
O -0.30158913 -0.61425260 -0.67866285
C 0.10471913 -0.01639069 0.46383217
C 0.28459420 1.32587468 0.52478603
C 0.05577334 2.10666529 -0.65086526
H -0.75661825 -2.30118135 -1.65731349
H 0.26352525 -0.69085933 1.30115477
H 0.59704568 1.69466712 1.50489059
H 0.26341902 3.16234762 -0.38204045
