10

O 0.039778955 -2.549463 0.5182842
C -0.23676491 -1.9913322 -0.5089682
O -0.2388528 -0.6683655 -0.696893
C 0.13414204 0.09427806 0.46287993
C 0.09996307 1.5122303 0.11212713
C 0.08538276 2.6862156 -0.13973737
H -0.5317234 -2.4908803 -1.4440138
H -0.5624998 -0.12256793 1.2791613
H 1.1377052 -0.20065077 0.7878751
H 0.0728689 3.730536 -0.3707152
