11

C 0.02905301 0.31287463 -0.45333065
N -0.46348758 1.21766987 0.59057287
C 1.49005074 -0.05353105 -0.21262473
N -0.85502634 -0.82840578 -0.44795132
C -1.68859781 -0.56490093 0.47215804
N -1.46205972 0.70345220 1.13377727
H -0.07591589 0.84095243 -1.40926128
H 1.83980679 -0.71575278 -1.00739026
H 2.10288813 0.85106395 -0.20169138
H 1.59581240 -0.56818457 0.74692466
H -2.51252375 -1.19523782 0.78881694
