11

O 0.8892148 1.5909187 -1.017521
C -0.91818994 -0.8954252 -0.22700465
N 0.06472231 0.7695922 1.068356
C 0.4317237 -0.5260114 0.34678754
C 0.010392284 0.95648277 -0.30544895
O -1.1270171 0.42050296 -0.8371259
H 1.1231993 -1.1751946 0.8762381
H 0.92250425 1.2224413 1.3867338
H 1.197397 0.38508752 -0.7692231
H -1.7077419 -1.1051388 0.5002556
H -0.88620466 -1.6432552 -1.0220473
