11

O -2.0135105 0.9895374 1.3780003
C -1.080535 0.61142397 0.72393674
N -0.975316 -0.55057096 -0.01222249
C 0.40830562 -0.8082524 -0.3578917
C 0.9417811 0.6303073 -0.32557386
O 0.0807248 1.3093425 0.58823746
H -1.6102277 -1.2929053 0.23572168
H 0.9100584 -1.44415 0.38262272
H 0.5109689 -1.2643546 -1.3453342
H 0.86001456 1.1103104 -1.3053882
H 1.9677361 0.70931125 0.03789147
