9

N -0.8139724 -0.42574182 -0.45889372
C 0.15157914 0.49397925 -1.2619203
C -0.012592896 0.61020505 0.22389264
C 0.9277069 0.042124275 1.1841502
N 1.7223818 -0.39030126 1.9031354
H -0.59212905 1.4367579 0.6296948
H -0.608642 -1.3833677 -0.1864431
H 1.0283413 -0.14005998 -1.4498671
H -1.8026727 -0.24359596 -0.5837488
