11

C 0.49549401 0.57191619 1.02455714
C 0.25339387 -0.30912618 -0.19398885
N 0.00449686 0.49459330 -1.36435558
C -1.73588669 -1.95439180 0.26918248
N -0.82346962 -1.23825482 0.08213858
H -0.81957710 1.07150097 -1.22047910
H 0.71362481 -0.03718842 1.90585553
H -0.39148693 1.18008690 1.23548695
H -0.17494415 -0.09425221 -2.17024174
H 1.13885247 -0.92158832 -0.39164278
H 1.33950246 1.23670465 0.82348766
