10

N 0.3232347 -1.0345404 -0.44709313
C 0.77997786 -0.06457169 0.589034
C -0.11011646 0.98221564 0.452303
C -1.0097793 0.6780474 -0.5932713
C -0.78526694 -0.5678453 -1.1959275
H 0.9232512 -1.779076 -0.7747023
H -0.11578405 1.8600805 1.0872688
H 0.077669986 -1.2293149 0.70055085
H 1.7388496 -0.17770228 1.0727105
H -1.8220365 1.3327068 -0.890873
