10

N -0.30846244 -1.1878572 -0.18077253
C -0.86045504 0.035419527 0.4026216
C 0.26893952 0.9813504 0.14670573
C 0.9028201 -1.1176782 -0.7167201
C 1.2527936 0.31936 -0.48238003
H -0.8306857 -2.0525792 -0.1842549
H 0.2415565 2.0243936 0.44532207
H -1.7878231 0.33748007 -0.10056638
H 2.1982608 0.7443483 -0.80065876
H -1.0769441 -0.08423719 1.4707032
