10

N 1.8740393 -1.0523077 -0.12657277
C -1.3364589 0.42305976 -0.32258156
C 0.7698453 -0.51311016 0.15233505
C 0.014334174 0.36068082 -0.77300537
C -1.1612426 0.14202759 1.1481407
O -0.6166884 1.3927891 0.5322368
O 0.016840475 -0.6523645 1.2795829
H 2.202854 -1.6247916 0.65055853
H 0.44963285 0.7518932 -1.6868244
H -2.213156 0.7721236 -0.85386986
