10

N 0.06991124 2.0661077 0.6140671
C -0.18501791 -1.3485147 -0.3730303
C 0.73189235 -1.3512998 0.8382484
C 0.12815182 0.84819806 0.3575398
C -0.5279633 0.040931366 -0.6983449
O 0.8892111 -0.07610301 1.1428311
O 0.46017724 -0.6548712 -1.4470402
H -0.78133345 -2.2106552 -0.6493147
H 0.6375506 2.3100955 1.4239925
H -1.4225796 0.37611115 -1.2089487
