11

O -0.94649826 -0.67797031 2.69250268
C -0.06992235 0.79158574 -1.26528493
N -1.51262317 0.46797562 1.62103024
C 0.70541033 -0.30529275 -0.60799239
C 0.50108189 -0.81366720 0.61256602
C -0.55163007 -0.33487300 1.47674539
H -0.50444507 0.42192895 -2.20021936
H 1.52208070 -0.73331316 -1.19210573
H -0.86961194 1.17556515 -0.62887403
H 1.12276940 -1.60795619 1.01488784
H 0.60338832 1.61601734 -1.52325560
