9

N 1.2672895 -0.15481298 -1.5630281
C 0.21950534 -0.022882346 -0.8619568
N 0.29442555 -0.032943785 0.5215652
C -0.7856606 0.093163736 1.364087
O -0.70914215 0.073250435 2.5668526
H 1.0451789 -0.12354131 -2.5515316
H -0.80250055 0.10542973 -1.2336035
H 1.210049 -0.15181631 0.9393451
H -1.739145 0.21415284 0.81826967
