9

N -1.727495 0.46949098 0.011831436
C -0.7764792 -0.45250916 0.176989
N 0.4622973 0.073217995 -0.055781655
C 1.5967389 -0.7178972 0.062497944
O 2.712486 -0.30451396 -0.12641323
H 0.6564261 1.0437071 -0.31606403
H 1.3383301 -1.7488465 0.34638232
H -1.5768869 1.4399785 -0.2583745
H -2.6854172 0.19737236 0.15893276
