10

O 1.6345899 2.165956 -0.6562362
C 0.20807892 0.2908993 -0.36239836
C -0.2258159 0.42461282 1.0308058
N -0.2892023 -0.7321607 -1.0022367
O -1.0399443 -1.4396149 -0.13918029
C 1.0916369 1.2100072 -1.1391828
C -0.9560434 -0.7869075 1.0948702
H 0.096255824 -0.95836836 1.5812304
H -1.7184677 -1.1066128 1.7988642
H 1.198912 0.93218887 -2.206536
