10

O -1.10396223 -1.86137926 1.15208141
C 1.88760983 -0.62129805 -0.17643910
C 0.65479458 -0.24085766 -0.05274194
N -1.55284237 -0.80306246 0.79425704
O -0.60484251 2.20793256 -0.93055885
C -1.21528117 1.35694685 -0.34571226
C -0.61017226 0.07341159 0.11938285
H 2.21300517 -1.18831337 -1.04626469
H -2.29203315 1.44940324 -0.09900704
H 2.62372411 -0.37278348 0.58500262
