10

O -1.3256782 -0.7199977 1.9325986
C -1.0428016 1.0008929 -1.1612529
C 0.62186944 -0.28505296 0.14687848
N -1.642959 -0.037085038 0.9931683
O -0.33133566 1.286213 -2.0838938
C -0.59795237 0.18531732 0.007882958
C 1.8015538 -0.7772889 0.36116317
H -2.1026578 1.3192149 -1.0965812
H 2.0634327 -1.7737725 0.01127041
H 2.556529 -0.19844079 0.8887658
