10

O 1.7094563 -1.7815664 0.8265391
C 1.1499816 -1.4680705 -0.19745523
C 0.19936444 -0.33911875 -0.26102826
N -0.3875757 -0.0385391 -1.3906156
O -1.1870522 1.0313373 -1.1216255
C -1.0664033 1.3606308 0.17791617
C -0.1995784 0.5311648 0.79557586
H 1.3121939 -2.0042055 -1.151094
H -1.6609156 2.2038925 0.5001992
H 0.13052897 0.5044748 1.8215883
