9

O -0.93136865 -1.1642176 -1.8755159
C -0.5123669 -0.5535112 -0.93810123
N 0.59198016 0.2775814 -0.83173543
C 0.7456116 0.88669944 0.40784597
C -0.29976094 0.26389942 1.1050361
O -1.0744903 -0.5593053 0.32944164
H 0.9500597 -0.054374803 1.3240306
H 1.201908 0.4243742 -1.6208574
H -0.6715727 0.47885448 2.0998557
