9

O 0.58960709 0.70530761 -0.74395353
C 1.10865118 0.01959704 0.42100143
N -1.00230391 -0.46492600 0.24391369
C -0.70558713 0.40964311 -0.85650532
C -0.00401307 -0.75550155 1.05779027
O -1.47568175 0.78167598 -1.68824978
H 1.91754987 -0.64633513 0.10527355
H -1.94636452 -0.81382873 0.34949544
H 1.51814232 0.76436765 1.11123432
