9

O 1.7452753 0.5427176 -1.6384617
C 0.8893368 0.35437638 -0.8182873
N 0.26771036 -0.8136908 -0.44276807
C -0.67093396 -0.5568934 0.5560136
C -0.6172555 0.7588617 0.78281575
O 0.32149938 1.3352875 -0.037892308
H 0.4898991 -1.7019271 -0.8588529
H -1.2777445 -1.3291653 1.0001508
H -1.1477869 1.4104334 1.4572822
