9

O -0.38000667 0.11417134 -1.1140566
C 0.8647268 0.59523803 -0.55197185
N -0.2405966 -0.40674657 1.0280728
C -1.0607942 -0.50221354 -0.14751044
C 0.9127619 0.22280636 0.89829946
O -2.128432 -1.0295043 -0.2207703
H 0.9110091 1.6811819 -0.68377304
H -0.5748665 -0.8159111 1.8911945
H 1.696198 0.14097802 -1.0994847
