11

N -0.5417037 1.7646267 1.1579243
C -0.05682852 0.5361301 0.7589958
C -0.39945024 -0.0117975725 -0.54234904
N 1.1048924 -1.8256445 -0.38282943
C 0.40920392 -1.021733 -1.1111546
N 0.59267265 -0.2890257 1.4562292
H -1.3008679 2.1234872 0.5981962
H -0.65049046 1.8817419 2.1557004
H -1.3912463 0.19567117 -0.93936074
H 1.8277307 -2.277929 -0.9447242
H 0.40608764 -1.0755273 -2.2066278
