10

O 1.4210622 -0.12167985 -0.42910483
C 0.9927973 -0.7031828 0.66816133
N -0.22509144 -0.6110457 1.0643376
C -0.9730062 0.56449395 -0.46268156
C 0.30516142 0.609232 -1.0836583
N 0.18045749 1.2837518 -2.0858412
H -0.43451923 -1.1004384 1.9281563
H -1.731936 -0.08844564 -0.88222075
H 1.7745175 -1.2646075 1.186849
H -1.3094432 1.4319224 0.09600215
