10

O -0.6838281 -1.7027287 -0.79645497
C -0.15224215 -0.5997108 -0.17510562
C 0.7255896 -0.60419285 0.85918534
N 1.4698727 0.010354929 1.6428818
N 0.25027138 1.7315927 0.0041474774
C -0.3389898 0.7763272 -0.6105722
H 1.3016456 -1.3839018 1.5414846
H -1.6210353 -1.7575153 -0.57529026
H -0.99736035 0.896054 -1.4797368
H 0.04607657 2.6337206 -0.4105393
