10

O -1.2774079 -0.24880518 1.381821
C 0.47033766 -1.1218102 0.051799744
C -0.34169808 -0.13017553 0.36775902
N 0.6608479 1.4840478 -1.1023991
N 1.0820017 -2.110331 -0.34056622
C -0.26207957 1.18545 -0.28265658
H -1.756947 -1.0771807 1.2612016
H -1.0785325 1.8507162 0.025467157
H 1.9893762 -2.2585144 0.09793738
H 0.51410174 2.4266033 -1.460364
