10

O 0.22280850 -0.71103549 -1.41864347
C -0.00486681 0.62189241 -0.95287636
C -0.99920301 0.48476449 0.19139118
C -0.08674078 -0.55317832 0.90464357
O -1.97789200 1.08712532 0.52134473
C 0.89468196 -0.30475481 -0.24205216
H -0.44977191 -1.57848227 0.98526668
H 0.19664450 1.43742434 -1.63640816
H 0.22615085 -0.17823567 1.88337725
H 1.97818860 -0.30552002 -0.23604342
