11

C 0.69141036 -0.64385253 -0.6852536
C -0.06620762 -1.7798374 1.0823317
C -0.053774413 0.19574755 0.06258348
N 0.7249536 -1.880634 -0.024171712
C -0.3626719 1.647247 -0.01158903
O -0.56814367 -0.50625247 1.1131972
H 0.06538414 2.0766146 -0.91834676
H -0.2811458 -2.6173136 0.13200286
H 0.054323666 2.1625946 0.859579
H -1.4443296 1.8089758 -0.011778845
H 1.2402011 -0.46328965 -1.5985541
