9

O -1.02660254 -0.95919161 1.61650060
C -0.18371021 0.13237263 1.32436395
C 0.10310501 0.28161560 -0.11200429
C 0.32820973 0.34257455 -1.29095279
C 0.78642304 0.46200787 -3.75484351
N 0.57418263 0.41169090 -2.59250547
H -0.63872463 -1.76163166 1.24768098
H -0.71036089 1.01987636 1.68754719
H 0.76747790 0.07068553 1.87421341
