9

O 1.1543812 -0.5761909 -1.6251061
C -2.3440886 1.4909909 1.0706948
C -1.0948974 0.78333193 0.638109
C -0.057678375 0.28721243 0.25944114
C 1.1791626 -0.33130115 -0.24099806
N -2.6121404 0.37863752 1.4386476
H 2.0174057 0.34702748 -0.05916474
H 0.39261654 -1.132963 -1.8252435
H 1.3652391 -1.2467452 0.34361953
