10

N -1.3201357 -0.6398146 -1.159373
C -1.2096877 -0.74713075 0.09173098
O -0.17869918 -0.21802431 0.77423745
C 0.76643527 0.47387967 -0.031949896
C 1.8218124 0.9820196 0.8517659
N 2.6755974 1.4027152 1.507567
H -2.1613677 -1.1068276 -1.4878682
H -1.8787616 -1.2538528 0.79438555
H 0.28742918 1.3044333 -0.55873144
H 1.1973783 -0.19739753 -0.7817639
