10

O 0.81495733 -0.72404759 -1.65992797
C 0.60113052 0.33115751 0.58310737
C 0.19887265 -0.71156247 -0.41719831
C -0.53468438 0.84511823 1.04469310
N -1.27453805 -0.55773376 -0.49366772
N -1.66317394 0.26994295 0.35854244
H 0.34927385 -1.70990623 0.01705496
H 0.61462451 0.10965164 -2.10574472
H 1.61918960 0.55626755 0.86895328
H -0.72565242 1.59111180 1.80418761
