10

O -1.9662513 0.9894705 -0.18710648
C -0.8057636 0.349959 0.040348046
N -0.47504166 -0.29963785 1.1170009
C 0.8005711 -0.7644645 0.8576546
C 1.2177387 -0.38333398 -0.38028726
N 0.15646785 0.3473225 -0.90949875
H -2.4928577 0.86291 0.61470467
H 1.3387179 -1.3494167 1.5902735
H 2.1306489 -0.5453605 -0.9334394
H 0.095769756 0.79255164 -1.8096497
