10

C 0.5952946 1.3861381 -0.5831023
O -0.4047265 0.38645238 -0.38871825
C -0.02962112 -0.62491804 0.43077454
O 1.0500823 -0.71549547 0.9632336
N -1.0622118 -1.504853 0.58113253
H 0.8533997 1.8666643 0.36500362
H 0.15119699 2.1118493 -1.2662556
H 1.4983847 0.95399636 -1.0216873
H -1.8287662 -1.4656197 -0.06880858
H -0.8230327 -2.3942142 0.98842764
