10

N 1.2376466 -0.1140148 -0.73087496
C -1.0849448 -2.3023214 0.37669805
O 0.6570729 1.9992894 -0.12526456
C 0.43865508 0.8052178 -0.15344103
C -0.83888835 0.27649215 0.5126663
N -0.9987573 -1.1364483 0.4496223
H 2.0815692 0.20679364 -1.1809859
H 1.0155162 -1.0968494 -0.73139054
H -0.8198329 0.5970692 1.5569721
H -1.6880364 0.7647717 0.02599798
