14

C 2.0672805 0.117754035 0.0066248407
N -0.9095184 -1.1848794 -0.4994963
C -0.34683913 0.13071367 -0.05423846
O -0.51175374 -0.2630477 1.3260318
N -1.6858484 0.7575683 -0.12513058
C -1.7077056 -0.55707705 0.57634884
N 0.84276646 0.7546244 -0.45468712
H 2.0426774 0.07716398 1.0999169
H -1.7343692 1.512877 0.5630206
H -1.4111127 -1.0576937 -1.3823458
H 0.82411486 0.9035317 -1.4542365
H -2.5734642 -0.996813 1.071825
H 2.180023 -0.9082318 -0.36889753
H 2.9237494 0.7135097 -0.30473557
