14

C -1.9527534 0.34701356 -0.5032704
N -1.0725958 -0.5814277 0.21267523
C 1.8477286 0.3153459 0.16344258
O 0.6925525 1.1067221 -0.23059157
N 1.3891555 -0.881451 -0.55805093
C 0.27316347 -0.21999025 0.21436842
N 1.1462634 -0.0954807 1.4117053
H 1.295144 -0.6734845 -1.5569257
H -1.984065 1.3466532 -0.056142356
H -1.3808864 -0.75082064 1.1635671
H 1.4666518 -1.0329361 1.6713544
H -1.6076758 0.4440263 -1.5379688
H 2.8411202 0.7610665 0.116946004
H -2.9538028 -0.085236564 -0.51110935
