11

N 1.21134884 -1.12241684 -0.68962222
C -0.82275058 0.09814632 -0.31716667
O 1.08335712 0.40619882 1.02994566
C 0.46194134 -0.20244300 -0.00496972
C -1.61583906 1.01490370 0.48005717
O -2.76376674 1.31443017 0.22413965
H -1.28740518 -0.35585573 -1.18575060
H 0.82915210 -1.44673254 -1.56557269
H 2.21424618 -1.00555328 -0.70038586
H 1.79918047 -0.14816052 1.36462094
H -1.10946421 1.44748296 1.36470433
