11

N 1.307767 -0.1767229 -1.2088336
C -1.7070128 0.16265912 0.9649196
O -2.9050846 0.3520261 0.9235439
C -0.851982 0.13585891 -0.206918
C 0.48564824 -0.06707729 -0.11850746
O 1.0908377 -0.1780869 1.0852678
H 2.275767 0.09050969 -1.1032933
H -1.3127369 0.28103507 -1.1780455
H -1.2005041 -0.001597677 1.9358004
H 1.9098909 -0.6823341 1.0039566
H 0.907409 0.08373002 -2.0978904
