11

N -0.41019946 -0.5548465 -1.464437
C 0.19506684 -1.2934304 -0.64039105
O 0.7698931 -0.81710607 0.4751102
C 0.6967872 0.5965427 0.6297615
C -0.73060524 1.0812384 0.7999665
O -1.0266963 2.2450912 0.71149945
H -0.7839675 -1.101415 -2.2345428
H 0.34040874 -2.37693 -0.6876312
H 1.159408 1.1156932 -0.21295731
H 1.2527816 0.809986 1.5483698
H -1.4628767 0.29517654 1.0752519
