12

C 1.0735607 0.19325875 0.78166413
C -0.31647068 0.5922767 0.34933004
N -1.0164441 1.5475997 0.81006444
N -0.9055976 -0.16982168 -0.6652175
C -0.39318538 -1.2463866 -1.340375
O -0.9964091 -1.8391957 -2.2071307
H 1.4132267 0.8636028 1.5745243
H 1.7825432 0.2587003 -0.050779253
H 1.0915993 -0.8320787 1.166827
H -0.5148446 2.0469332 1.5371076
H -1.8411641 0.11866158 -0.9271163
H 0.6231857 -1.5335503 -1.0288988
