12

C -0.20058876 0.59604234 1.22450521
C -0.28356882 0.50561389 -0.30689142
N 0.78487030 1.10726099 -1.06148563
N -0.23953508 -2.01538018 -0.74875544
C -0.30649591 -0.99277783 -0.03328452
O -0.36204609 -0.84803004 1.33308890
H 0.77772436 0.90708982 1.59985336
H 1.67380464 0.68071482 -0.81768955
H -0.24026807 -2.86726766 -0.18627483
H -1.00330870 1.12215951 1.74344196
H -1.24315832 0.85729296 -0.69521102
H 0.64257050 0.94728145 -2.05129706
