12

O -0.8106204 1.4552289 1.8349794
C 0.28392464 0.6293401 1.5217488
C 0.114371054 -0.041842766 0.18875778
N -0.40188384 0.77777165 -0.89113986
N -0.44230977 0.064865105 -1.9116151
C 0.04401667 -1.2743633 -1.5496113
N 0.36981004 -1.2366936 -0.149349
H 0.91997343 -1.5028129 -2.1669638
H -0.9396332 2.0664363 1.099203
H -0.73277485 -2.0118704 -1.7726473
H 0.3721787 -0.13110518 2.299635
H 1.2229474 1.205046 1.4970024
