10

C 1.11671513 -0.47796620 -0.39568240
N 1.65297889 0.50367843 1.40467030
N 0.39261533 0.68497123 1.28645270
C -1.35750997 0.11213896 -0.30003498
N 0.02096678 0.07292648 0.15271468
N 2.14452416 -0.21832085 0.37375544
H -1.48572125 0.88938340 -1.05615980
H 1.13072507 -1.04372604 -1.31529801
H -1.63398046 -0.85808952 -0.71507102
H -1.98131401 0.33500400 0.56465330
