11

C -0.5261092 1.0405083 0.54324305
C -0.07509156 -0.04875211 -0.4309876
N 1.3777529 -0.14360198 -0.44935003
C -0.7187468 -1.3480732 -0.103564754
N -1.1586492 -2.3825426 0.16497798
H -1.6137425 1.1576523 0.53057563
H -0.22140224 0.7948954 1.5666506
H -0.058943503 1.9866987 0.2583708
H -0.40178558 0.22438289 -1.4399208
H 1.6814189 -0.85623956 -1.1049283
H 1.7152991 -0.42492783 0.4649334
