9

O -0.26209561 -1.22144050 -1.17992702
C -0.86428050 0.00304192 -0.87478318
N -0.60799292 -0.89555833 0.22689708
O 1.30372617 -0.09801749 1.57166739
C 0.44114481 0.07774763 0.57978155
C 0.15996084 0.98675188 -0.36167625
H -1.87258903 0.18210745 -1.23751575
H 1.12892349 -0.95449644 1.98796424
H 0.57320290 1.91986382 -0.71240791
