9

O -0.71826845 -0.022512026 -2.1169403
C 0.16523896 -0.32235283 1.1875209
N 0.8341452 0.74476737 0.9032693
N -0.5365551 -0.7912231 0.101914085
N 0.5583413 0.97301793 -0.41469514
C -0.29312325 0.04936802 -0.98474085
H 0.15514489 -0.7930938 2.1590478
H -1.1304958 -1.6009483 0.048542958
H 0.96557236 1.7629769 -0.8839185
