9

O 1.6804632 0.9304026 0.6052173
C 0.5636023 0.30770013 0.1941385
N 0.43043324 -0.24686155 -0.99969345
N -0.8105279 -0.72764933 -0.9569659
N -1.4812545 -0.5293592 0.15722388
C -0.62414604 0.13735212 0.9262067
H 2.326222 0.8899914 -0.111976095
H -1.2115407 -1.2170684 -1.7402573
H -0.8732516 0.4554924 1.9261063
