12

O -0.78155375 0.3783613 1.6207491
C -0.672533 -0.5798066 -0.6218993
C 1.1759611 0.28989735 0.09038705
O -1.5057884 0.3861509 -0.94244444
C -0.005066618 -0.4069387 0.7749878
O 0.6445292 0.107038274 -1.2657182
H 1.2854357 1.3487169 0.33669737
H 2.1316273 -0.23045671 0.15992151
H -0.8160562 -1.5752813 -1.0538516
H -1.3946539 0.84212136 1.0201594
H 0.25704354 -1.3408037 1.2804651
H -0.31894508 0.7810012 -1.3994536
