12

O 1.0434669 1.0983534 -1.0125753
C 0.59982467 1.0151837 0.31836712
C -0.4480228 -0.0893865 0.44945768
O -1.4902824 0.18768275 -0.44672394
C 0.15740171 -1.4361916 0.11419895
O -0.32905748 -2.1402788 -0.7372889
H 0.23823796 1.1318699 -1.5482751
H 0.16134249 1.9601964 0.66860485
H 1.4734612 0.79221725 0.94142604
H -0.8092228 -0.13442762 1.4909843
H -1.6402864 -0.63606215 -0.9392161
H 1.0431372 -1.749157 0.70104045
