10

O -1.18163371 -1.86220928 -0.53828299
C 0.01188747 -0.24636818 0.92945494
C 0.65760949 1.00224711 0.41309763
C -0.55561944 -0.84510831 -0.35698593
N -0.18682211 0.06502274 -1.32294689
N 0.52757933 1.14519473 -0.85396914
H 1.19386451 1.74366813 0.99028262
H 0.71864776 -0.94014009 1.39611284
H -0.39437916 -0.00202713 -2.30604188
H -0.79113426 -0.06027967 1.64927860
