10

O -1.9409359 -0.7299672 -0.28570673
C -0.6749519 -0.4950853 -0.26995927
C 1.1053246 0.647086 0.4312199
C -0.1401322 0.08822978 0.9202842
N 0.2219853 -0.35370904 -1.2550763
N 1.3220305 0.38966808 -0.8277403
H 1.8620552 1.1814281 0.991733
H -0.2194725 -0.43124557 1.8718193
H -1.5905663 0.14889868 0.6683622
H 0.05466311 -0.4453034 -2.2449358
