10

N -0.6779388 -1.3420229 1.0717329
C 0.26081306 0.8903673 -1.4672769
O 0.9446851 1.7737613 -0.91785187
N -0.31775594 -0.1819187 -0.88181055
C -0.12856838 -0.30153483 0.42527112
O 0.560639 0.5122754 1.185228
H 0.88924634 1.2311926 0.5583923
H -1.1551325 -2.0446596 0.5352167
H 0.085329354 0.95904315 -2.5509562
H -0.46131742 -1.4965036 2.0420544
