10

N 0.09252247 -0.50494564 -0.1350802
C 0.17433827 -1.4969407 0.7147268
O 0.38067397 -2.5656188 0.057354204
N -0.13134184 1.6692253 -0.8204059
C -0.13580859 0.83171016 0.24728242
O -0.30370316 1.177881 1.3979334
H -0.10900043 1.3154141 -1.7622086
H 0.32122514 -1.6182534 -0.84344786
H 0.08545089 -1.4392442 1.7978725
H -0.3743567 2.630772 -0.65402657
