10

N 1.4782745 0.5022751 0.91775167
C 0.22333178 0.62217766 0.37591398
O -0.44868034 1.6282669 0.44266632
N -0.2295715 -0.54982835 -0.23270565
C -1.4573306 -0.6418863 -0.8697976
O -1.857087 -1.670101 -1.3559169
H 1.874863 1.3767691 1.2262362
H 2.1290345 -0.16631223 0.5363623
H 0.29216224 -1.412007 -0.1630272
H -2.0049963 0.31064585 -0.87748295
