11

O -1.117053 1.25147 -0.48735538
C -0.61347127 0.73096555 0.71863526
C 0.46283674 -0.29962772 0.4555576
C 0.42490587 -1.1357708 -0.7413408
O 1.2802327 0.008009589 -0.6683206
H -0.34265596 1.4293437 -1.0403231
H -0.19633949 1.5244281 1.3587881
H -1.4481338 0.26979643 1.2554082
H 1.0121974 -0.6533612 1.3284516
H -0.40833315 -1.0329901 -1.4321824
H 0.9458145 -2.0922635 -0.7473183
