11

O -0.7064645 1.3619882 -0.6976292
C -0.20386524 -1.1599169 0.59754056
C 0.59821075 1.1216561 -0.20393828
C 0.457999 -0.32432675 -0.41791376
O -1.4746262 -0.6803154 0.26826048
H 1.3499568 1.6094611 -0.83064276
H -0.09833316 -2.237115 0.41943774
H 0.5257622 -0.6924477 -1.4413911
H -1.3069828 0.52467126 -0.17126378
H 0.7391981 1.3940318 0.8534041
H 0.119145215 -0.91768694 1.6241361
