17

C 0.35802138 -0.36350635 0.042853512
N 0.5313106 -0.46362495 1.2968242
C 0.267485 -1.7111 -2.034755
O -0.24191138 0.57135546 -0.7306692
N 0.8703567 -1.3471038 -0.76934904
C 0.15423723 0.5283398 2.2813556
C -0.81116235 1.7530383 -0.20748968
H -0.061700705 2.383951 0.29141936
H 1.2069396 -2.097238 -0.1911645
H 0.4440164 0.13604517 3.2603457
H 0.6716134 1.4937123 2.1575265
H -0.93151665 0.7134597 2.3265648
H -0.7558823 -2.0989323 -1.9373751
H -1.6411926 1.5407327 0.48125738
H -1.2015774 2.2901466 -1.0751779
H 0.89055413 -2.4828348 -2.490256
H 0.250409 -0.8464406 -2.7019107
