11

C -0.18401503 0.29491985 1.37783842
C 0.42240566 -0.27878013 -1.08856331
C 0.65260541 0.59079508 0.15926923
O 1.50958864 1.43745173 0.12679516
C -0.95636541 -0.74046723 -1.25286734
N -2.05224830 -1.08822952 -1.35365558
H -1.22750610 0.56097416 1.18056655
H 0.18869510 0.86528744 2.22874628
H 0.73850801 0.28902414 -1.96980641
H 1.07693169 -1.15372569 -1.01035161
H -0.16859945 -0.77725006 1.60202858
