11

C -0.17969431 -0.8086591 -0.86884713
C 0.5281178 0.8648784 0.99617016
C 0.69893354 0.370612 -0.4176578
O 1.5070064 0.8212235 -1.1898429
C -1.5029094 -0.8448374 -0.24518584
N -2.5385864 -0.84507424 0.26415616
H 0.5529392 0.026440198 1.700764
H -0.27640316 -0.7716386 -1.9588878
H -0.45305386 1.3384659 1.1038351
H 1.3134252 1.5826488 1.2336026
H 0.35022527 -1.7340593 -0.61810654
