11

C -0.52070284 1.1352553 0.4794379
C -0.12784776 -0.23303938 -0.028477555
C 1.2600887 -0.7136426 0.028123
O 0.28183258 -1.1812606 0.9422996
C -0.98939663 -0.7737179 -1.0803692
N -1.6774917 -1.1672105 -1.9205799
H -1.5273528 1.1113831 0.90685457
H 0.18115708 1.4530923 1.255026
H -0.5077609 1.8658239 -0.3344778
H 1.6119577 -1.4473083 -0.6938255
H 2.0155168 -0.049375553 0.44598886
