10

N 1.13328086 -1.42975364 -0.26092627
C 0.43150771 -0.31982258 0.00555637
O -1.03861227 1.87301504 0.53211141
C -1.50031040 0.87604163 -0.04917338
O 1.10993510 0.61453370 0.62576561
N -0.84539889 -0.26280729 -0.35678572
H 2.12405694 -1.44674152 -0.08665934
H 0.69603504 -2.15089251 -0.80644205
H 0.44376542 1.36062499 0.76140628
H -2.55425951 0.88580267 -0.36485283
