11

C -0.53144336 -1.0792255 -1.4120904
C -0.017158689 -0.24938533 -0.2872648
N 1.1573411 -0.25920564 0.24715973
C 1.0904758 0.6930338 1.2532197
C -0.14272468 1.2339922 1.2667886
O -0.8706548 0.63906515 0.2785499
H -1.4239305 -1.6343184 -1.1091707
H 0.24411073 -1.7846807 -1.7115157
H -0.7985741 -0.45758745 -2.272222
H 1.9358373 0.91201067 1.8900117
H -0.6432788 1.986301 1.856534
