13

N 1.0384333 0.6195794 1.5364687
C -0.6624029 -0.40835223 -0.09811034
C 1.0546114 -0.72312313 -0.4943316
N -1.5248022 0.19157518 -1.0813185
C 0.6464964 0.47577393 0.15365027
N 1.4757539 -1.7495862 -1.0120645
H 0.6269346 1.363661 -0.48518986
H -2.0524333 -0.5096097 -1.5875037
H 2.0001948 0.93690294 1.5968792
H 0.45845258 1.3280827 1.9754112
H 0.16938458 -1.6479635 -0.72071975
H -2.1887417 0.83782494 -0.66489553
H -1.0418817 -0.7147655 0.8817242
