10

O 0.20525911 1.1504707 -1.4243269
C -1.14683 -0.70853657 -0.49491268
C 0.947464 0.30708084 0.6084958
N -1.5803777 0.3326771 0.08271671
N 1.0491216 -0.66324115 1.4566215
C -0.15227416 0.31723365 -0.37749487
N 1.1340446 -1.5234234 2.1916237
H -1.5279123 -1.6800095 -0.7862205
H -0.5926236 1.3548087 -1.931901
H 1.6641285 1.1129396 0.67539823
