10

O 1.4488524 -1.2705822 0.87062764
C 0.54821837 -0.45555276 0.32244477
C 0.88283277 0.89311457 0.0840535
N 0.006912249 1.7150261 -0.45402876
N -1.2082733 1.2605592 -0.77644974
C -1.4667592 -0.013384977 -0.5336816
N -0.6396778 -0.9205205 0.010917151
H 1.0288049 -2.14287 0.9504769
H 1.8587828 1.2940748 0.33228672
H -2.4596932 -0.35986423 -0.8066465
