11

N -0.5109489 0.8980656 0.6627849
C 0.7054847 -0.8144684 0.057115342
C -0.29394495 0.040092617 -0.36408663
N 0.28005666 0.6617759 1.7292016
C 1.0078506 -0.378159 1.3641735
N -1.0634494 0.108920276 -1.5304184
H -0.92088675 0.9668812 -2.0514495
H 1.1512085 -1.6256235 -0.50117004
H 1.740578 -0.7850686 2.0487988
H -0.8733766 -0.68052757 -2.1345398
H -1.2225721 1.6081116 0.7195908
