11

N -0.9768269 -1.7064917 0.59780264
C -0.3473292 -0.5385035 0.15388869
C 0.96589214 -0.16029693 0.26819867
N 1.0421255 1.0532601 -0.39983714
C -0.19504061 1.324136 -0.87583065
N -1.060274 0.39235467 -0.55789614
H -1.9802964 -1.6077921 0.5146765
H -0.73120326 -1.9683187 1.542144
H 1.8286784 -0.6217782 0.7219733
H 1.8674221 1.6167961 -0.51829207
H -0.41314757 2.216634 -1.4468278
