11

N -0.6663896 1.6151505 -0.7204876
C -0.54206383 -0.6412998 0.3486182
C 0.95107746 -0.6276885 0.69241935
C -0.124599874 0.3002973 -0.7914707
C -1.114434 2.696503 -0.64328974
O 1.2358837 0.25965625 -0.40837228
H 1.2163044 -0.17224243 1.6521934
H -1.2012932 -0.18330847 1.0859606
H -0.9500105 -1.5970122 0.015323415
H -0.2778566 -0.06733033 -1.8113035
H 1.473382 -1.5827253 0.580409
