11

N 0.5578021 -0.9312749 -1.1373463
C -0.7480239 0.53834856 0.20875646
C -1.5566931 0.9364048 -0.91775113
C 0.42122132 -0.37573197 0.003016515
N -2.1078823 0.035949025 -0.24710456
N 1.2188338 -0.537984 1.1163375
H -1.7072152 1.5206904 -1.8137183
H 1.158709 0.1591996 1.8425075
H -0.7442116 1.1240844 1.1300603
H 2.14704 -0.90803635 0.97108215
H 1.3604199 -1.5616498 -1.1558403
