10

N -1.42176888 0.04109761 0.45872488
C -0.27986998 0.64096065 0.22774389
N -0.08267051 1.97686397 0.44008694
O -1.10668859 -1.31101817 0.17009531
C 0.15469580 -1.30730064 -0.20075013
O 0.66659378 -2.48057226 -0.52790210
N 0.75222488 -0.15541257 -0.20352172
H 0.64417839 2.38447364 -0.12802362
H -0.91996609 2.53040478 0.52188223
H 1.59327126 -2.31949639 -0.75833566
