11

N 0.31052655 -0.3891524 2.409429
C -0.49070346 -0.41896838 1.3476294
O 0.23793942 0.065000646 0.31830916
N 0.21357311 -0.36536866 -2.0560358
C -0.453764 0.09364326 -0.88949037
N 0.009718168 1.0818715 -1.7934176
H -0.73659706 1.3789748 -2.4156048
H -0.052748214 -0.69421846 3.2956765
H 1.2733788 -0.06930014 2.3799407
H 1.1956036 -0.53057885 -1.8261642
H -1.506927 -0.15190332 -0.7702717
