11

N -0.71365513 0.10911711 2.35202132
C -0.97443111 0.36423567 1.07249510
O 0.11663615 -0.03562842 0.38378068
N 1.25196628 0.31359795 -1.64958294
C 0.00737694 0.15149211 -0.99139278
N 0.42337993 -0.90271219 -1.84722793
H -1.40188554 0.35506458 3.04217871
H 0.14788211 -0.31779444 2.67722832
H -0.88372507 0.71293816 -1.26410886
H 0.88321745 -1.61935048 -1.28198616
H 1.14323818 0.86904020 -2.49340508
