12

N 0.03168579 1.678589 -0.30930287
C 0.5196052 -0.3805825 0.9460816
C -1.7306956 0.22181557 -0.08263266
N 1.1591508 -1.427999 0.5575463
C -0.23509379 0.26273733 -0.17993537
N 0.11821773 -0.5632772 -1.3310341
C 0.8765819 -1.4735245 -0.8301949
H 0.49180627 -0.06333863 1.986642
H -0.76975423 2.1486661 -0.72960854
H -2.0783148 -0.2648824 0.850322
H 0.3058513 2.1300426 0.552485
H 1.3109595 -2.2682462 -1.4303687
