11

O -0.32244915 -0.59062491 2.31632243
C 0.04102813 1.09341354 -0.68812367
N -0.17810328 1.04432159 0.69852552
C 0.19753331 -0.13138779 -1.19301903
C 0.07961395 -1.12463504 -0.06965770
C -0.16534252 -0.25282238 1.16553428
H 0.37540360 -0.37786137 -2.22919789
H 0.06171791 2.05265143 -1.18786821
H -0.75406647 -1.82522669 -0.19188733
H 0.98032771 -1.72888251 0.07984508
H -0.31566324 1.84105426 1.29952668
