11

N -0.33055948 -2.17773648 -1.41633528
C 0.96566771 1.40418357 0.04069620
C -0.21934150 0.75321531 0.61036260
C -0.39367282 -1.47090509 -0.41703069
C -0.35051637 -0.72757937 0.66887416
O -0.26516463 1.34939490 -0.67184978
H 1.75760938 0.78073910 -0.36984726
H 1.26322604 2.39546691 0.38001885
H -0.77660733 1.29325631 1.37653670
H -1.23076889 -2.39835572 -1.84209908
H -0.41987216 -1.20167927 1.64067380
