11

O -0.111189134 -2.4144924 0.13163123
C 0.78268725 0.9743647 -0.25604904
C -0.20645674 1.0394193 0.6970064
C 0.8053054 -0.31814814 -0.8315504
C -0.008505369 -1.2228793 -0.060612183
N -0.85401917 -0.17808713 0.67652875
H 1.3742614 1.8138819 -0.5963378
H -1.5554214 -0.4939404 1.3298132
H -0.6634541 1.9013643 1.1646594
H -1.0636297 -0.428612 -0.67343783
H 1.5004215 -0.6728706 -1.5816517
