11

O 2.5792933 -0.8266888 -0.64218926
C 1.5368209 -1.0518031 -0.17357978
C -0.84582096 0.84316766 0.27529308
C -0.6746509 -0.39872625 0.751925
C 0.352048 -1.353828 0.3271161
N -0.0639432 1.4682587 -0.6892281
H -1.3503339 -0.7579742 1.5231701
H -1.627081 1.473465 0.6953981
H 0.4573887 0.8512859 -1.2984545
H -0.5519567 2.1751366 -1.2219312
H 0.18823594 -2.4222937 0.45248038
