11

N 1.6161404 -1.6008472 0.6466659
C 0.7580303 -0.7354305 0.3047403
C 0.8551883 0.66948086 0.737226
N 0.020938266 1.5876391 0.4303348
C -1.0534842 1.2059888 -0.37545857
C -1.203052 -0.048787702 -0.8045102
O -0.32666552 -1.0392777 -0.48949596
H 1.3938336 -2.5159392 0.25928783
H 1.710515 0.90899175 1.365762
H -1.7637715 1.9782337 -0.64039916
H -2.0076725 -0.4100518 -1.4341531
