11

N -0.73719645 0.8647649 -0.052002795
C 0.5628292 1.1147388 -0.000747967
C -1.2477708 -0.39680532 -0.044769783
N 0.99653953 -1.2631816 0.07768104
C -0.31415984 -1.423876 0.02462041
C 1.5280056 0.02010453 0.06367537
O 2.7246819 0.2487113 0.10002312
H -0.6867958 -2.448278 0.035682347
H 0.881076 2.150949 -0.012755579
H -1.3879985 1.6443261 -0.09846624
H -2.3192108 -0.51145375 -0.09293991
