12

N -1.38900632 0.20254876 -0.35088805
C -0.23720152 0.39343686 -1.12882011
C -0.96875458 -0.28273509 0.82862368
N 0.32455767 -0.42797904 0.91056500
C 0.78912159 -0.00490542 -0.32114116
O -1.86727262 -0.56403468 1.78545526
N 2.15553728 -0.08160958 -0.59515399
H 2.68536855 -0.14266396 0.26340719
H -2.34308833 0.38789111 -0.60763360
H -1.36399383 -0.90291827 2.53812746
H -0.28025981 0.75489679 -2.14297018
H 2.49499172 0.66807248 -1.17957167
