12

N -0.2703626 -0.015244217 -2.049446
C -0.15598042 -0.039790116 -0.6538201
C -1.032753 -0.31111556 0.33251232
N -0.35844827 -0.09411254 1.5473603
C 0.9334762 0.33418307 1.3343755
O 1.7717378 0.6574191 2.1543152
N 1.0513738 0.31507957 -0.054280266
H 0.29237908 -0.728129 -2.5016491
H -1.2328464 -0.12506397 -2.3372943
H -2.0482457 -0.67087746 0.2893629
H -0.7670495 -0.08770295 2.464974
H 1.8167188 0.76535404 -0.52641064
