12

N -0.7635593 0.40956247 1.3159928
C -0.048230805 -0.3068532 -0.6732586
C -1.1256899 -0.34545118 0.16533336
N 0.9505852 0.43186694 -0.0624393
C 0.48737174 0.84023106 1.1098478
O 1.3796935 1.541626 1.7119751
N 0.11911048 -0.8162796 -1.9541944
H -1.3241317 0.5869759 2.1305497
H 1.0672041 -1.1251473 -2.1269739
H -2.0964317 -0.80614066 0.071382284
H -0.5412545 -1.5488527 -2.1741438
H 1.8953329 1.1384622 0.48592883
