10

O -1.9658524 0.9916779 -0.18650287
C -0.80567175 0.3511019 0.041695558
N -0.4761534 -0.2985687 1.1178752
C 0.8007596 -0.76521677 0.85645586
C 1.2177169 -0.38470176 -0.3812888
N 0.15709116 0.34777027 -0.9094157
H -2.490998 0.8650861 0.6164927
H 1.3376905 -1.3516817 1.5890572
H 2.1294067 -0.54819936 -0.9345724
H 0.09601042 0.79273194 -1.8097968
