9

N -0.69318646 -1.7306473 0.7210836
C -0.03998129 -0.75964123 0.2650333
O -0.45982438 -0.0068149627 -0.8142382
C -0.31083742 1.3537915 -0.78079087
O 0.0616286 1.9815276 0.16172597
C 1.2842991 -0.4686805 0.7871252
N 2.349134 -0.28808177 1.1915492
H -1.5813471 -1.8287612 0.22966695
H -0.6098849 1.7473079 -1.7611551
