11

C -0.17841709 -0.41507646 0.57554895
N 0.7658051 1.9359447 0.27317435
C -0.03683005 -1.0457494 -0.81053424
O 0.7239071 0.10965615 -1.2654489
C 0.5066805 0.7630647 -0.08492762
O -1.5031714 -0.24345003 0.9859005
H 1.2152641 2.4594204 -0.47956207
H 0.44970903 -0.8846807 1.3449353
H -1.512207 0.40895948 1.6972319
H 0.55314046 -1.9602255 -0.88863367
H -0.9838807 -1.1278633 -1.3476849
