10

O -0.6048629 -1.5877908 -1.4464436
C 0.27367634 -1.0238526 -0.84655166
O -1.2670802 -0.7302247 0.9693057
C 0.2492911 1.0390948 0.3759062
C 0.4426453 2.2115164 0.19893971
C 0.014047384 -0.4092919 0.52622324
H 0.7541285 -0.81203526 1.2335593
H -1.7510455 -1.0555588 0.19199373
H 1.2890556 -0.89110047 -1.2608951
H 0.6001442 3.2592428 0.057962492
