13

C -0.10926436 -0.7442285 0.15397291
C -0.29397973 1.5095817 -0.18485883
O -1.3823241 -1.0842012 0.23870586
C 0.37541577 0.29357755 -0.8450612
O -0.71422905 0.9493673 1.0330131
N 0.7637699 -1.6207824 0.6539713
H 1.4703022 0.35452333 -0.84346694
H 0.042502705 0.018613093 -1.8529515
H -1.6364038 -0.1303149 0.62115026
H 0.41847777 -2.3293538 1.2799386
H 1.7536067 -1.4461381 0.5917697
H -1.1225563 1.9052397 -0.79759216
H 0.43468246 2.3241162 -0.04859114
