10

O 0.99776324 0.06901270 1.19162778
C 1.60051198 -0.38314258 0.11480661
C 0.55795304 -0.41559395 -0.98046939
C -0.73949757 0.10698576 -0.38410181
O -1.80612964 0.26828784 -0.91779320
C -0.41230483 0.39624357 1.07110240
H 0.45088743 -1.43953598 -1.35967422
H 0.88501051 0.18358105 -1.83885257
H -0.55559256 1.44612027 1.33842931
H -0.97860177 -0.23195865 1.76492455
