10

O 0.8789208 1.2489742 0.34834933
C -0.2934141 1.0079134 -0.39015716
C 1.2673091 0.08468426 -0.3528752
C 0.4282094 -0.9712465 0.41142312
O -2.0387802 -0.53238285 0.44367245
C -0.8968726 -0.21537551 0.26813838
H 0.3874758 -1.9684356 -0.029686613
H -0.78366625 1.8986788 -0.7784303
H 0.2508797 0.46955627 -1.3578521
H 0.79993826 -1.0223666 1.4374182
