10

O 0.38989395 0.8315327 1.2557099
C 0.93565786 -0.66265136 -0.3616455
C 1.4083067 0.105042785 0.85279286
C -0.5070595 -0.25689778 -0.6186525
O -1.2473276 -0.61233044 -1.49855
C -0.8422469 0.7214301 0.49439216
H -1.6319427 0.35444677 1.1565275
H 1.0314144 -1.7402357 -0.17900017
H -1.1171253 1.711298 0.12178037
H 1.5804286 -0.45163494 -1.2233541
