11

N -0.21075458 -1.91280433 0.58327129
C -0.47501129 0.56456664 0.85048893
C -0.01962894 -0.59858162 0.10535184
N -0.16374310 1.70528229 0.33259669
N 0.58825664 1.26429731 -0.85086573
C 0.66837282 -0.22708926 -1.01449370
H -1.03911645 0.55001263 1.77866345
H -1.18376578 -2.12840155 0.76337165
H 0.15117059 -2.56856291 -0.09827515
H 0.15507194 1.69493654 -1.66837898
H 1.52914824 1.65634434 -0.78173043
