11

N -0.9252889 1.326636 0.6552079
C -0.5815968 0.11943285 0.9566523
C 0.5664377 0.28965202 -1.0595939
N 0.81165993 -1.8270305 0.21589597
N -0.20349061 1.5002577 -0.61342025
C 0.28482231 -0.5371852 -0.009622466
H -0.8861515 1.7753241 -1.3203429
H 1.3596874 -2.1058648 -0.58873564
H 0.09376983 -2.5217574 0.38220122
H 0.4315136 2.2926018 -0.5006459
H -0.9513629 -0.31206658 1.8824037
