10

O 0.061067715 -1.447469 1.6652412
C 0.03815124 -0.4759869 0.738031
N 0.13538761 0.803274 0.94996494
C 0.05614962 1.3645649 -0.31242794
C -0.08818964 0.40453586 -1.264473
N -0.09923147 -0.79932135 -0.56758976
H 0.16343461 -0.996798 2.5147607
H 0.109256804 2.4359329 -0.44833407
H -0.18391001 0.44180566 -2.3393273
H -0.19211648 -1.7305381 -0.9358458
