9

N -0.47991591 -1.87843934 0.34174072
C -0.07926755 -0.69416142 0.42103559
O -0.82869100 0.40563657 0.03455076
C -0.27179477 1.28430104 -0.85865987
O 0.78246292 1.14722327 -1.39332916
C 2.13665248 -0.08722854 1.53898570
N 1.11533995 -0.37385059 1.02014297
H -1.39325827 -1.91413583 -0.10738942
H -0.98152775 2.11065491 -0.99707729
