17

C 0.47388344 1.45861046 -0.07786108
N -1.30632250 -0.51430651 -0.97815484
C -2.52327998 -0.18984477 -0.03506937
O 0.12049691 -2.14788503 -0.20870329
N 0.72508268 0.04000994 0.14325424
C 1.96070086 -0.32890649 0.81422669
C -0.06559041 -0.95530047 -0.31848959
H -2.09484824 0.54047179 0.67250647
H 0.96376045 2.02891379 0.71653929
H -0.59671844 1.67537293 -0.02980547
H -1.16438224 0.28694358 -1.58793129
H -2.57746889 -1.13441431 0.53561783
H 1.99009167 0.13784426 1.80528311
H 1.99180419 -1.41241670 0.91642781
H 0.87399601 1.79942109 -1.04226090
H 2.82926633 0.00913513 0.23736798
H -1.60047168 -1.29364863 -1.56294707
