17

C -2.4781356 0.16001873 1.5725121
N -0.84060454 -0.39834598 1.2316831
C -0.49496245 -0.6972445 -0.113557346
O -1.2299261 -1.3952634 -0.7774678
N 0.6729588 -0.15019894 -0.5592502
C 1.0690006 -0.3672757 -1.9419363
C 1.509357 0.7504485 0.22363588
H -2.2898557 1.207833 1.8245124
H 1.6583805 0.38996208 1.2497244
H -0.19785735 0.12519844 1.8089983
H -1.5821564 -0.9857588 1.7879179
H 2.495682 0.7931355 -0.24616943
H 0.32316726 -1.0082803 -2.4123166
H 2.049638 -0.8547594 -1.982936
H -2.8891103 0.08125933 0.5621953
H 1.1281514 0.5838795 -2.4832654
H 1.0962727 1.7653922 0.25571898
