11

N 1.848709 -0.109206796 -1.4387635
C 0.5983946 -0.13251747 -0.87190765
N -0.54745674 -0.24452384 -1.4431589
N -1.5000161 -0.07009136 -0.43083963
C -0.83528525 0.09098439 0.65860754
N -1.2972084 0.19467503 1.946444
O 0.513945 0.07284941 0.47313017
H 2.5452607 -0.645874 -0.9405611
H 1.8027495 -0.35293472 -2.4183598
H -0.82704693 0.89376134 2.5041504
H -2.3020453 0.30287802 1.961259
