10

O 0.33595726 -0.50894487 -2.2352571
C 0.15055823 -0.3208242 -1.0687672
C -0.9082003 0.4847881 -0.26439816
C 0.010172729 0.2686217 0.9404985
O 0.072639085 -1.1293713 1.1329286
C 0.9752343 -0.55337137 0.18677884
H -1.908747 0.058681402 -0.17247428
H -0.965551 1.5142832 -0.6291224
H 0.20394364 0.9176357 1.784353
H 2.033993 -0.73149824 0.32545996
