10

O 1.317423 0.48502138 -0.45348758
C -0.26641682 -1.3183767 0.300994
C 1.5448728 1.7641298 -0.36058706
C -0.8527711 -0.027485408 0.6961973
O -1.4804001 0.6125511 1.4875544
C -0.026800195 -0.037294596 -0.52078557
H 0.5840202 -1.6615169 0.89134556
H 0.5211591 2.2412708 -0.3942786
H -0.46563125 0.046530906 -1.5098906
H -0.87545544 -2.1048305 -0.13706203
