10

O 1.06951623 0.98373266 -0.25476486
C -0.22988423 0.35662164 -0.30545213
C -0.51443709 -0.75942530 0.60933767
C 1.40959731 1.76213557 0.73261351
O -0.73549972 -1.11912545 1.72806823
C -0.22562283 -1.10533119 -0.79185209
H -1.01370271 -1.42522652 -1.46855571
H -1.01123327 1.02648764 -0.64998279
H 0.49188950 1.80996457 1.39011876
H 0.75937676 -1.52983351 -0.98953083
