17

C -1.54761743 -0.67491394 0.86636217
N -0.60706991 -0.44498369 -0.21507259
C 0.51114534 0.35671117 -0.28696345
O 1.16666932 0.75919509 0.80940893
N 1.07865426 0.78620896 -1.34162007
C 0.96968201 0.28104983 2.12489315
C 0.59464116 0.37503790 -2.63548261
H -1.07404949 -1.17722254 1.71470173
H -2.03296727 0.24562722 1.21789081
H -2.32190645 -1.34732723 0.48854695
H -1.03517771 -0.52421793 -1.13047377
H 1.02167217 -0.81325411 2.17381604
H 1.79800992 0.69841944 2.70018773
H 0.02874236 0.64184867 2.55475310
H -0.41510647 0.75059424 -2.86689121
H 1.26371861 0.80378394 -3.38717998
H 0.60095967 -0.71655694 -2.78687689
