17

C 0.4953088 0.38794574 -0.27391186
N 1.0401908 0.88203484 -1.3120905
C 0.9686846 0.23226678 2.131231
O 1.1401049 0.7709564 0.8357179
N -0.59024453 -0.4594142 -0.23097736
C 0.5661105 0.50514376 -2.619994
C -1.5155602 -0.7700331 0.84340876
H -1.0183712 -1.2874285 1.6688575
H 0.61444294 -0.57828665 -2.8159072
H -2.03483 0.11561043 1.2339562
H 1.7829235 0.6581569 2.720231
H 1.0637751 -0.8602256 2.1351972
H 1.2140476 0.990147 -3.3558514
H -0.45874223 0.8497639 -2.8323536
H 0.016518153 0.53794044 2.5787413
H -1.0195546 -0.5181082 -1.1473624
H -2.2648041 -1.4564698 0.44110826
