9

O 2.111595 -0.21926305 -0.25093845
C -0.0885251 -0.04890732 -1.1172285
C -1.0647893 1.0585184 0.5978744
N -0.72647744 0.05959541 1.347345
C 1.1859028 -0.83729887 -0.67356235
N -0.7248133 0.9146176 -0.76408565
O -0.22192472 -0.9644496 0.7887017
H 1.0818207 -1.9075533 -0.8997731
H -1.5527889 1.944741 0.97166693
