9

O -1.35956672 1.19145349 0.49605017
C -1.34652689 0.00330875 0.60301262
C 1.00166701 -0.16345441 0.62533305
N 1.48883260 0.32951456 -0.43386364
C 0.26297878 0.11225690 -2.61788396
N 0.78027541 0.17126329 -1.56658225
O -0.22471084 -0.76951356 0.73114787
H -2.21465309 -0.66863244 0.64465272
H 1.61170387 -0.20619654 1.51813327
