9

O -1.1416972 0.5204703 1.3927265
C 1.2397237 2.150149 -0.8803522
C -1.4364796 0.06477144 0.33030435
N 1.5760561 -0.1692171 0.029199684
C 0.6313345 -1.0111934 0.0005055627
N 1.3258873 1.0511239 -0.47906366
O -0.64800197 -0.7587346 -0.42619088
H 0.83734775 -2.0457654 0.24192512
H -2.3841708 0.19839557 -0.20905448
