11

C 1.1693242 0.9397531 -0.7987412
C 0.026994776 0.5375741 -1.4707764
N -0.5404102 -0.8483589 -1.1847013
C -0.71715254 -0.7664154 1.4225384
C -0.45370933 -0.7041091 0.0007609522
O 1.5845169 0.4092696 0.2563245
H -0.5159119 1.04187 -2.2560675
H -0.47763267 -1.7773302 1.7679119
H -1.7659394 -0.5374507 1.631435
H -0.039538026 -0.05772056 1.9060354
H 1.7294586 1.7629182 -1.2747198
