17

C -2.4815707 -0.9279597 0.59731275
N -1.3237847 -0.4259143 -0.118500866
C -0.26504973 0.070901714 0.6248347
O -0.35025454 0.21810448 1.8363794
N 0.8556007 0.42243063 -0.092341736
C 2.0663788 0.7610659 0.6243972
C 0.9340809 0.34723586 -1.5380439
H -2.2642953 -1.834076 1.1782979
H -2.8304927 -0.16173981 1.2937382
H -3.277231 -1.139719 -0.12031035
H -1.0896275 -0.9265183 -0.96230286
H 2.8534272 0.010843875 0.4602801
H 1.8357407 0.8047552 1.6883965
H 2.4476619 1.7371505 0.29994133
H -0.019588798 0.63736963 -1.9881909
H 1.6907307 1.0579104 -1.8843777
H 1.2182745 -0.65184116 -1.8995101
