10

C 0.87941605 -0.16884367 0.3551454
C 0.18660113 -1.0775169 -0.62189907
N 0.29029417 0.4787218 1.4087884
C -0.95720327 0.67018753 1.0105861
N -1.2721244 0.38393748 -0.24846011
C -0.039614137 0.21527094 -0.99899656
H 1.9547738 -0.30583617 0.4018553
H -1.7327164 0.98277926 1.7042922
H 0.50111413 -1.9847124 -1.1220498
H 0.18945903 0.8060123 -1.8892616
