10

C -1.0820287 0.24472862 -0.25275528
C -0.31840855 -0.5975915 -1.0506444
N 0.94960237 -0.8914697 -0.7646653
C 1.4444138 -0.3266079 0.3370202
N 0.81216574 0.49344537 1.1753848
C -0.45510694 0.7724412 0.8691877
H -2.1138067 0.4779959 -0.49116623
H -0.7338144 -1.0526391 -1.948331
H 2.4795225 -0.5617401 0.57871985
H -0.9825389 1.4414371 1.5472498
