10

C 1.107875 -0.7976644 0.17851835
C -0.84231293 0.5768086 0.44123268
N 1.4790558 0.32555696 -0.2924851
C 0.20213003 0.9976077 -0.52186215
N -0.85396373 0.021468977 -0.90217125
C -0.38972127 -0.82926834 0.23988768
H -1.6929954 1.0322207 0.9291467
H -1.0006509 -1.6899055 0.48594174
H 0.20204121 1.9508847 -1.0389014
H 1.7885422 -1.5877094 0.4806927
