10

C -0.28906340 1.10358689 0.08340302
C 0.06705054 -0.89373464 -0.30636152
N -0.66482336 0.19344027 -1.03160973
C 1.33937756 -0.26511320 0.17693821
N 1.12690375 0.96716544 0.41691717
C -1.05296937 -0.14214248 0.32853690
H -0.72925976 2.09469098 0.08085613
H -0.04000772 -1.89838801 -0.69838713
H 2.29820245 -0.75649996 0.31103579
H -2.05541046 -0.40300539 0.63867130
