12

C -0.58347458 -0.32617251 0.73887451
C 0.25667362 0.94044205 0.79164929
N 0.25631793 1.33260592 -0.62331198
N -0.31596059 -2.08862533 -0.97965512
C -0.18154615 -0.89508093 -0.59828440
O 0.36290016 0.10226142 -1.34405935
H 1.26874008 0.72701238 1.16721254
H 1.12393351 1.79901902 -0.87605668
H -0.39150054 -1.03299141 1.54747909
H -0.18601947 1.74165389 1.38457869
H -1.65280711 -0.09041376 0.71556890
H 0.04274328 -2.20971085 -1.92399551
