11

N 1.366857 -0.6647453 2.5937533
C 0.65971136 -0.6727266 1.6813055
C -0.24400818 -0.6535419 0.5162039
C -0.53312755 0.7426762 -0.07569571
C 0.2439719 0.21978918 -1.2910699
O 0.4061395 -1.0767411 -0.6826667
H -1.1213055 -1.2661278 0.7480273
H -1.5938277 0.93027365 -0.2467167
H -0.085186 1.5807445 0.4580541
H -0.31188917 0.16044332 -2.2299974
H 1.2126642 0.6999561 -1.4711982
