11

N 1.18326301 -0.01490833 0.71988727
C 1.16556495 -1.10710652 -0.02263509
C -1.05209685 -0.16618177 0.13426230
C 0.08416320 0.87390100 0.23296253
C -0.01733171 -0.63801378 -0.91853108
O 0.28290577 0.77666830 -1.16694024
H -1.25402598 -0.79327843 1.00513870
H -1.95941225 0.22927432 -0.32491237
H 0.04310086 1.87932656 0.65177650
H -0.27079687 -1.20031686 -1.81368306
H 1.79466572 0.16063576 1.50267403
