11

N 0.6425654 -0.39561185 1.1615388
C 0.8429594 -1.343366 0.26367807
C 0.08124924 0.7889818 0.44267848
C 0.35539207 -0.48805067 -0.9415754
C -0.9876089 0.07721299 -0.41378415
O 0.9417609 0.83191246 -0.6826469
H 0.5089487 -0.84924924 -1.9553221
H 0.7941988 -0.4780214 2.1553195
H -1.4712994 0.7374822 -1.1352661
H -1.6895006 -0.5915002 0.08883103
H -0.018665615 1.7102101 1.0165489
