11

N 1.14734 -0.38288054 -1.276091
C 1.159029 0.81267107 -0.9947146
C 0.260613 0.99631345 0.33742854
C -0.1101348 -0.92417485 0.44820523
C -1.0218011 0.20428841 0.026922893
O 0.65606904 -0.05403969 1.1921438
H -0.3002697 -1.9059682 0.8729445
H -1.4566787 0.238145 -0.97201383
H -1.7600008 0.41962737 0.8059367
H 1.1389048 -1.3850634 -1.2405455
H 0.28692946 1.9810814 0.7997833
