12

N -0.9286714 2.078895 1.7888187
C -0.8573457 1.2748549 0.9632829
C -0.7609644 0.22290514 -0.0678345
C 0.39687634 0.47633564 -1.084901
N 1.4862376 -0.4130215 -0.6808695
C 1.0059382 -1.1963391 0.196823
N -0.344823 -1.0557381 0.50993603
H -1.732871 0.1342967 -0.56129014
H 0.07308228 0.21718337 -2.099023
H 0.729775 1.5170794 -1.0905629
H 1.5748557 -1.9897782 0.67224187
H -0.6420897 -1.2666731 1.4533786
