12

O 0.05016848 0.34046004 -1.49545480
C -0.07928897 -0.19705583 -0.23933072
C 1.09089848 0.07653105 0.65706404
O 1.40262145 1.47265252 0.63831018
C -1.17351273 -0.88000839 0.08337196
O -2.21496628 -1.11374373 -0.74944109
H 0.67908310 1.93050343 1.08586186
H 0.64138114 1.10523025 -1.38300456
H -1.99255503 -0.70881473 -1.60055367
H 1.99508038 -0.40691867 0.26646204
H 0.90612419 -0.30733676 1.66689545
H -1.30503430 -1.31149925 1.06981905
