12

O -0.31900358 0.37761313 -1.4527422
C -0.056673262 -0.20570785 -0.238473
C 1.1141778 0.39595628 0.47903663
O 0.9801091 1.8196554 0.52127963
C -0.81809145 -1.2039565 0.19928129
O -1.8692478 -1.7292624 -0.4729979
H 2.0388477 0.22887352 -0.087450266
H -0.6372094 -1.6802597 1.1568705
H 1.2348684 -0.052328322 1.4718761
H -1.9331588 -1.2533338 -1.3139701
H 0.022970658 1.2854548 -1.3757483
H 0.24241069 2.0172946 1.1130376
