12

O 0.84742033 1.3418273 0.006050542
C -0.040662423 0.100239575 0.54413944
C 0.5396687 -1.1835287 0.075853996
O 0.490403 -1.3826795 -1.3249109
C -1.3727311 0.5320204 0.26280436
O -1.6173818 1.6935347 -0.07769666
H 0.731789 1.1282358 1.0633085
H -2.172858 -0.2086363 0.4133905
H 1.5646956 -1.2962847 0.46038583
H 0.06163899 1.9465498 -0.227292
H 1.0277319 -0.6893146 -1.7233005
H -0.059714247 -1.9819638 0.5272669
