11

C -0.06107299 0.6773048 -1.9034003
C 0.42302877 -0.9002152 1.4443986
N 0.5789862 -0.29553097 -1.0023478
C -0.8309239 1.3799555 -1.0394304
C 0.1206714 -0.13001208 0.20998333
O -0.67607445 0.92040753 0.26355737
H -0.46081507 -1.4581419 1.7732327
H 1.2306303 -1.6044589 1.2379348
H 0.7214042 -0.22695841 2.2537022
H 0.45359814 -0.58286864 -2.1015038
H -1.4994324 2.220518 -1.1361271
