11

C -0.61600935 -0.90057548 -1.25475549
C -0.04950191 -0.11579133 -0.12848691
N -0.36222812 1.10136920 0.27843683
C 1.16096207 0.43758348 1.58039172
C 0.39193490 1.54662143 1.40777234
O 0.89062759 -0.58819694 0.63502842
H -1.06815234 -1.82609351 -0.88713762
H 0.16911150 -1.16642113 -1.96724256
H -1.38141634 -0.31728448 -1.77332707
H 1.93483063 0.16229186 2.27939397
H -1.07015881 1.66649668 -0.17007355
