11

N -0.0738303 -1.5032632 -0.76556444
C -0.30304116 -0.24496213 -1.2314366
C -0.6008551 0.546479 -0.10976729
N -0.9195966 -0.4199996 0.80609405
C 0.66618025 -1.5603992 0.47692966
N -0.33050224 1.8386662 0.1978945
N 0.32683805 -0.76332635 1.4283354
H 1.4915982 -2.2653184 0.5375886
H -0.20602527 -0.01792241 -2.2870684
H -0.53598017 2.1100037 1.1480194
H 0.48521423 2.2800422 -0.20102508
