11

N -0.42207557 -1.6492727 -1.0672252
C -0.235413 -0.48852938 -0.3574794
C 1.0122495 -0.13188164 0.20183432
N 1.1625307 1.015743 0.8240058
C 0.0635398 1.790006 0.8716618
N -1.1224407 1.4930952 0.37212104
N -1.2791367 0.3258165 -0.24758455
H 0.17951772 -2.430424 -0.863712
H -1.3884623 -1.8860928 -1.2395196
H 1.8778541 -0.7887413 0.13546248
H 0.15183628 2.750281 1.3704354
