11

N -0.42308387 -1.6487586 -1.0683956
C -0.23477745 -0.4885032 -0.35693774
C 1.0130908 -0.1322316 0.20039895
N 1.1635531 1.0164595 0.8232384
C 0.06475158 1.7888811 0.8729067
N -1.1234518 1.491823 0.37358332
N -1.2781461 0.3266235 -0.2450632
H 0.17902637 -2.4295743 -0.8654673
H -1.3900808 -1.8856096 -1.2363337
H 1.8781439 -0.7896301 0.13065569
H 0.1509743 2.7505205 1.3714144
