11

N 1.1785246 -0.0716477 0.7981298
C 0.56964386 1.689103 -0.21165957
C -0.6835682 0.55438715 -0.48882574
N 1.5253012 1.1895171 0.6647307
C 0.071950376 -0.49638754 0.12681787
N 0.24635015 1.2930752 -1.4046133
N -0.3327204 -1.7964017 0.3268935
H -0.42136633 1.645486 0.50635785
H 0.35536483 -2.3640773 0.8006778
H -0.74977976 -2.25014 -0.4725748
H -1.7597004 0.60708565 -0.6459341
