9

N 1.1403897 0.2688596 0.36235115
C 0.8892848 0.9033396 -0.78851205
C -0.46650723 0.47558075 -1.0525653
C -0.9118716 -0.3311625 -0.040134598
N 0.061031494 -0.4074425 0.9121337
H 0.23409478 -1.2353535 1.4661397
H 1.9494014 0.40603504 0.9484189
H -1.0457364 0.7707831 -1.9180735
H -1.8500868 -0.8506397 0.11024233
