10

O 0.03255691 -2.550223 0.5165436
C -0.24072123 -1.9912955 -0.51128304
O -0.23767076 -0.666254 -0.6974214
C 0.13492104 0.0955262 0.4637095
C 0.10455172 1.5116745 0.112894855
C 0.08896012 2.6861043 -0.13816501
H -0.53078896 -2.4874935 -1.448299
H -0.56374276 -0.120610476 1.2781122
H 1.1354798 -0.20714173 0.79152906
H 0.07645419 3.7297134 -0.36762065
