10

O 0.800625 -1.0599573 0.51048625
C 0.24412386 1.0497572 -0.3725151
O -1.4855672 -0.05776047 0.5139583
C -0.7436936 -0.10413699 -0.5647175
C 0.3328338 0.17386572 0.8235175
C 0.0041587506 -1.2632269 -0.83536583
H 1.1227506 1.0672905 -1.0103897
H -0.23532322 2.0112512 -0.18099509
H -0.45444378 -2.2480204 -0.7646899
H 0.41453588 0.43093696 1.8807113
