11

O 1.7534727 -0.9152229 -1.8320479
C 0.73348075 -0.26470092 -1.9172423
N -0.032766823 0.08603398 -0.8533909
C 0.3409678 -0.323846 0.49089438
C -0.5800925 0.25079677 1.4708627
C -1.3449059 0.72258174 2.2655165
H 0.32599565 0.10791356 -2.877252
H -0.8793763 0.61732996 -0.99332076
H 0.3311064 -1.4183896 0.5646772
H 1.3674029 9.4493626e-05 0.6963861
H -2.015285 1.1374087 2.9849167
