10

C -1.0820365 0.2456135 -0.25127158
C -0.3194508 -0.596801 -1.0490104
N 0.94876426 -0.8907962 -0.764104
C 1.4429955 -0.32664424 0.33550107
N 0.81254053 0.4921541 1.1736408
C -0.45416352 0.77219236 0.8678866
H -2.113136 0.479592 -0.49067533
H -0.73361707 -1.0539098 -1.945974
H 2.4774687 -0.5624226 0.57701504
H -0.9793648 1.4410218 1.5469918
