10

C -0.9650759 -0.050267987 -0.63108104
C -0.44760993 0.19425298 1.1981498
N -1.5077704 -0.30889368 0.61875933
C 0.64898765 0.4240334 0.26411238
N -0.25592852 -1.0737096 -1.2388376
C 0.86035705 -0.6154741 -0.74267244
H 1.4272041 1.1539977 0.48116967
H -0.40073195 0.39353967 2.2682414
H -1.195603 0.87013376 -1.1671327
H 1.8361712 -0.9876122 -1.0507084
