9

N 0.35835454 0.15493906 1.4293848
C -0.37074283 -0.9801416 -0.64886534
C 0.2934363 0.8978896 0.38781518
C -0.1302582 0.33227807 -0.87915665
N -0.394748 -1.9353307 0.13442184
H -0.2384067 0.8539288 -1.8167274
H 0.6687095 0.65897197 2.2531059
H -0.7283355 -1.9458996 -1.2411349
H 0.541991 1.9633642 0.38115636
