9

N -0.7742983 0.24268246 -0.8754044
C 0.5716136 0.31164944 -0.7607382
C 0.87020993 -0.1096938 0.5154502
C -0.385627 -0.4095576 1.0857282
N -1.3777181 -0.1935813 0.23741066
H -1.3402829 0.47807953 -1.6745548
H 1.1945453 0.6459507 -1.5771449
H 1.8469179 -0.19109048 0.96873766
H -0.60536015 -0.77443886 2.0805156
