9

O 0.70321673 1.8701711 -0.52751225
C -0.45646304 1.0854955 -0.4006855
C -0.17398433 -0.33545592 -0.15442339
C 0.10602313 -1.4883592 0.06459366
C 0.45467886 -2.9274135 0.2609726
N 0.26852685 -2.6345954 1.4170098
H -0.99990827 1.1883457 -1.3437496
H 1.218037 1.7929766 0.28354937
H -1.1201268 1.4488353 0.40024558
