9

O -0.2423592 -1.2140085 1.7552917
C -0.19054364 0.1277805 1.3373708
C 0.11558615 0.26656854 -0.09943057
C 0.33775732 0.33306444 -1.2811139
C 0.5982341 0.41365185 -2.640067
N 0.8146781 0.47673514 -3.779946
H -0.9130708 -1.6754019 1.2371583
H 0.60269475 0.602057 1.9207791
H -1.1229767 0.6695529 1.5499581
