11

C 0.43952173 0.079767145 -0.11614823
C -0.7949119 -0.13914001 -0.95774835
N 0.8177314 -0.9446425 0.7011228
C 0.4263621 1.7926906 0.87183285
N -0.64761055 1.400011 1.1829585
H -1.0856395 0.7920503 -1.4475403
H 1.2731098 0.49260417 -0.6715641
H 0.085137084 -1.3109654 1.295644
H -0.5514589 -0.8883541 -1.7205079
H 1.6725162 -0.78074527 1.2179037
H -1.6347578 -0.4932758 -0.35595292
