11

C -0.5262886 1.0397837 0.54520154
C -0.07633805 -0.048238717 -0.4309857
N 1.3775866 -0.14094053 -0.44869092
C -0.7203904 -1.3479525 -0.10525228
N -1.1586149 -2.382043 0.16418923
H -1.6134437 1.1574119 0.52957594
H -0.22470893 0.78991294 1.5681893
H -0.055001732 1.9840991 0.26232037
H -0.3998009 0.22653241 -1.4408532
H 1.681967 -0.85057014 -1.1078192
H 1.7150339 -0.42799532 0.46412477
