9

N 0.39879882 -0.53080064 -1.0294932
C -0.8031267 0.23959255 -0.7724462
C 1.0139846 -0.55834603 0.09505194
C 0.24983934 0.17903922 1.1206446
N -0.82938087 0.65467286 0.6179753
H 0.52745414 0.32142842 2.1609666
H 1.9648162 -1.0641376 0.23312052
H -1.6902406 -0.36197692 -1.001716
H -0.8321449 1.1205281 -1.4241036
