10

O -1.9646028 0.37854564 -0.8255615
C -0.76393485 0.36231664 -0.40581003
C 0.6372329 -1.1313802 0.6727522
N -0.5611804 -0.84614617 0.14772266
N 1.643843 -0.28304064 0.6834726
C 0.3207174 1.2802461 -0.4056092
N 1.4630896 0.93114805 0.1319728
H 0.7917176 -2.1102133 1.1158731
H 0.23737173 2.2706366 -0.837599
H -1.8042543 -0.8521129 -0.2772137
