11

N 1.57586011 1.58260661 -0.69410258
C 0.58974352 -0.19467258 0.89564382
C -1.34506502 -0.36868996 0.25181109
C 0.82503708 0.67909719 -0.24681350
C -0.02624956 -0.49610963 -0.50655168
O -0.68851021 -0.00687448 1.48269498
H -2.05613310 0.39731352 -0.08001313
H 1.42077237 1.70962564 -1.69575794
H 1.35294316 -0.70609514 1.47070534
H 0.20397738 -1.26246155 -1.23977671
H -1.85237574 -1.33373972 0.36215963
