11

N 0.7387516 1.7335117 2.3424675
C 0.25112027 1.3202515 1.381435
C -0.34663948 0.78155214 0.14572597
C 0.5788982 -0.11666262 -0.70062596
C -0.40079865 -1.2319028 -0.31239095
O -1.2416525 -0.3019763 0.39677465
H -0.8352986 1.6018453 -0.3904597
H 0.58796936 0.14493681 -1.7584872
H 1.5999683 -0.21999493 -0.3297175
H -0.9351572 -1.7137296 -1.1346223
H 0.0028386877 -1.9978313 0.35989982
