11

N 2.0500736 0.28690046 -1.0884134
C -1.3335044 0.41459212 0.2417029
C 1.016184 0.07450745 -0.40570298
C 0.5186096 -0.08479846 0.9548435
C -0.29885492 -0.5796927 -0.27937505
O -0.46906596 0.87419 1.2993256
H -2.2126968 -0.08696703 0.661609
H 1.8745909 0.078223206 -2.0728722
H -1.6438141 1.2288209 -0.4240492
H -0.51637113 -1.5801816 -0.639413
H 1.0148498 -0.6255943 1.7523446
