11

C -1.4608425 -0.27141798 -0.31965083
C 0.8178744 -0.14243492 0.08719277
C -0.4811626 0.52203137 0.39727697
O 0.9428467 -1.430374 -0.102631
C 2.028458 0.60659736 -0.11393628
N 2.9686737 1.271789 -0.23360546
H -0.38467276 1.5648936 0.050920516
H -0.0059488583 -1.7393612 -0.05833841
H -1.5495341 -0.14638036 -1.3958979
H -2.2514946 -0.79651994 0.20017712
H -0.62419754 0.56117725 1.4884925
