11

C 1.2981008 0.6386031 0.57443744
C 0.10179388 -0.29057485 0.41303805
C -0.7471889 0.05075633 -0.7849667
O -0.54221183 0.94648856 -1.5588827
C -1.9302573 -0.83323234 -0.9776586
N -2.844925 -1.524193 -1.1161451
H 1.9486637 0.59680593 -0.30297527
H 1.8801696 0.34505746 1.4524109
H 0.9766708 1.6751812 0.7017543
H -0.5533427 -0.26712504 1.2945418
H 0.4125267 -1.3377674 0.30444548
