11

C 1.1324161 0.18275967 0.3393197
C -0.94956386 -1.2590684 0.55501837
C 0.46720332 0.1604021 -1.006384
O -1.0866458 1.1310779 0.69823337
C -0.353952 0.036926687 0.25431442
N -1.4502046 -2.2772434 0.7744974
H 1.4747458 1.1390841 0.72006524
H 0.5894287 -0.7186195 -1.6308647
H 1.7142515 -0.6796301 0.6465793
H -1.9040978 1.1823181 0.1848475
H 0.36641896 1.101993 -1.5356265
