11

C 0.63676854 0.30412992 0.96588602
C -0.39177917 0.15991327 -0.11071718
C 1.01220600 -0.34830403 -0.33307626
O -0.78981735 1.34500928 -0.71749898
C -1.45319446 -0.82429950 0.06104551
N -2.29922647 -1.60500891 0.16211575
H 1.60860929 0.22688779 -1.03329481
H 0.54115634 -0.31564264 1.85098336
H 0.97450454 1.32028139 1.13933286
H -1.01603156 1.15787029 -1.63849003
H 1.17680390 -1.42083709 -0.34628656
