9

O 0.74541754 -0.5835339 -1.3653283
C -0.49944308 0.4460828 0.07566666
C -0.24967653 0.38635814 -1.3488464
O -1.5973918 0.9988935 0.63403296
C 0.9210159 -1.0881507 -0.11194919
N 0.2266445 -0.5450322 0.80630755
H -1.4812931 0.9691016 1.5925838
H 1.6475165 -1.8838809 -0.0065434347
H 0.28721005 1.3001615 -0.2759234
