9

O 1.2885371 0.23819408 1.0991683
C 1.2344912 0.75191164 -0.22850849
C -0.5202101 -0.47247708 0.026910257
O -1.8534101 -0.12903029 0.1844664
C 0.2135538 -0.47584125 1.3648589
N 0.22045474 0.42256448 -0.8829834
H -2.279472 -0.20894992 -0.676967
H 2.0773335 1.3699344 -0.51136035
H -0.3812775 -1.4963058 -0.37558466
