11

N 0.96784318 -1.01935732 -0.42434977
C -0.03023408 -1.15658921 0.54022887
O -0.30873266 -2.24175706 1.02856863
C -0.75312437 0.03865854 0.94009891
C -0.33198348 1.62423631 -0.81613597
O -0.79508441 1.16939029 0.29312829
H -1.38434579 0.02779630 1.82162254
H 1.51693661 -1.86497257 -0.48239341
H -0.63387057 2.63630803 -1.04123880
H 0.22058905 0.97215225 -1.48446133
H 1.53200648 -0.18586586 -0.37506830
