11

N -0.06762376 -1.6369922 0.12930654
C 0.20557883 -0.5745894 0.9310965
O 0.78884727 -0.6280122 1.9948311
C -0.24759442 0.7452883 0.35940784
C 0.25537378 1.1927993 -0.94215316
O -1.0693462 0.6953018 -0.8010088
H -0.7261855 -1.5236869 -0.62539303
H 0.12197853 -2.561085 0.48862347
H -0.5260514 1.4852895 1.10738
H 0.33315423 2.2603748 -1.1446134
H 0.9318686 0.5453117 -1.4974774
