11

N -0.60946995 1.3422879 -0.045533318
C -0.88226724 0.1766696 0.6802283
O -1.9594029 0.028411658 1.243585
C 0.14282703 -0.841195 0.76866347
C 0.9894136 -0.70607984 -1.1553675
O 1.3359203 -0.7257291 0.11358388
H 0.34687993 1.6709495 -0.056320477
H 1.5633031 -0.05577941 -1.8075901
H 0.12457187 -1.561224 1.5766108
H 0.22709593 -1.387727 -1.5044103
H -1.2788717 2.0594156 0.18655047
