10

C 0.5958148 1.3867316 -0.58379465
O -0.40278572 0.38549757 -0.38664147
C -0.029186673 -0.6263064 0.4321939
O 1.0513357 -0.7169176 0.9631431
N -1.0640416 -1.5062066 0.5838937
H 0.8529396 1.8705139 0.36331406
H 0.14860666 2.1101499 -1.2669665
H 1.4985594 0.9559254 -1.023259
H -1.8281648 -1.4641877 -0.07012153
H -0.8230774 -2.3952 0.98823845
