10

C 0.13828214 0.47781178 0.13980432
O -1.0151069 -1.4315925 -0.60784787
C -0.31563756 -0.2576383 -0.88174015
O 0.7736415 1.6661192 0.0026326214
N -0.047878098 0.15860529 1.4736524
H -0.4821784 -2.1730864 -0.9180703
H -0.28176486 0.0946614 -1.9098804
H 0.8681726 1.8568182 -0.9377921
H -0.37726498 -0.7877102 1.5822464
H 0.73973453 0.39601144 2.056995
