11

N 0.94880474 1.1453764 1.122164
C 0.11936218 0.322967 0.35843492
C -1.2045672 0.12635157 0.3128736
O -1.5094087 -0.72762483 -0.7390687
C -0.348237 -1.0897896 -1.3596914
O -0.2758997 -1.803745 -2.323254
N 0.6646955 -0.47145754 -0.6536023
H 1.6162627 0.62293106 1.677474
H 0.4188758 1.7611121 1.7244065
H -2.0275302 0.49722427 0.90146637
H 1.597642 -0.3833453 -1.0212027
