11

N -0.8788776 1.5310643 0.80634826
C 0.93533725 -0.78819865 -1.2143247
C -0.16851455 0.44741583 0.3106286
O 1.8961977 -1.1755407 -1.841407
C -0.2081473 -0.8766733 0.73733926
O 0.37890777 -1.6660873 -0.11813032
N 0.5049133 0.5249984 -0.84628665
H -0.7609278 -1.3271021 1.5552354
H -1.135957 1.447583 1.7800236
H -0.13891251 -0.53077304 -1.7849121
H -0.4240193 2.4133132 0.6154856
