10

C -0.3065448 -0.98159754 2.1169412
C -0.045347173 0.57545143 -1.0050966
N -0.36944133 -0.07759662 1.2886115
C 0.48698583 -0.6879392 -1.456142
N 1.4043045 0.12646933 -1.1781725
C -0.57227427 0.77759707 0.3659615
H -0.40148824 1.3011533 -1.732664
H 0.5612328 -0.99756986 2.7822871
H 0.3735198 -1.7117634 -1.7845191
H -1.130947 1.6757956 0.60279274
