10

C 0.8184295 -0.096120015 0.78498083
C 0.4475521 1.136876 0.26181176
N -0.5098715 1.26268 -0.658136
C -1.092698 0.1287804 -1.0463412
N -0.82262737 -1.1055748 -0.61859447
C 0.13682017 -1.2059476 0.2989005
H 1.5991687 -0.18797864 1.5297406
H 0.930927 2.0558085 0.5869627
H -1.8755553 0.2189072 -1.7956451
H 0.36785457 -2.207431 0.65632045
