11

C -1.1316 -1.7487674 0.42866066
C 0.100947626 0.14999579 -0.011515784
N -0.31477934 -0.68494266 0.9211335
C -1.1240026 -1.406148 -0.888958
C 0.9570042 1.3552672 0.123016104
O -0.3688339 -0.24029559 -1.162636
H 0.42047432 2.2427185 -0.22365548
H -1.5701506 -1.8322034 -1.7741084
H 1.2407213 1.5004953 1.1683942
H -0.07392017 -0.585293 1.8972164
H 1.8641393 1.2491733 -0.47754738
