10

N -1.3362713 1.7745069 0.44040662
C -0.9373732 0.66723335 0.16011347
C 0.9935153 -0.5590806 -0.74920267
C -0.46566188 -0.56394446 -0.14345868
C 0.8754142 -0.94659495 0.62874955
H 1.1744379 -0.13728485 1.3088155
H 0.989757 -1.331168 -1.5255451
H -1.5068907 2.0306947 1.4068729
H -1.1766065 -1.3330404 -0.42710668
H 1.3896794 0.39867818 -1.0996447
