11

O -1.1522374 -0.53547937 0.11752583
C 1.1798602 0.059266802 -0.264947
C -1.4049495 0.35279924 -0.81572264
O 0.6574907 0.52592224 -1.4611543
C 0.08913654 -0.28106967 0.75332403
N 0.2384277 -0.39621237 1.9886786
H -0.61731505 -0.68609685 2.4568098
H -0.3795166 1.0691423 -1.1389304
H 1.7675319 -0.85874504 -0.41700375
H 1.8332516 0.787498 0.23848927
H -2.21168 -0.037025478 -1.457069
