10

N 0.59442709 1.64056273 0.48498325
C 0.12530872 0.39631013 0.07768613
N 0.21044333 -0.00252996 -1.18674117
N -0.41021572 -1.17553699 -1.17281887
N -0.87757431 -1.58252447 -0.01743648
C -0.55353694 -0.59688113 0.81374321
H 1.07112076 1.62214506 1.37537515
H 1.18221795 2.05828038 -0.22470347
H -0.52177589 -1.72219834 -2.01042123
H -0.82041492 -0.63762725 1.86033347
