10

N -1.7712219 0.00641577 0.19936368
C -0.42057484 0.020936187 -0.067803
N 1.7828084 0.05168943 0.07844026
N 0.042897027 0.05027324 -1.3268325
N 1.3529344 0.10645411 -1.279033
C 0.6636714 -0.038979918 0.8098236
H -2.3326266 0.29354867 -0.590201
H -2.048628 0.44078666 1.0642592
H 0.6934729 -0.124772884 1.8864625
H 2.0372674 -0.80635124 -0.77447975
