11

O -0.97334821 -1.79975690 0.33571212
C -1.56033829 -0.71795594 0.85910114
C 0.25727537 -0.12279887 -0.17986453
N 0.17396062 -1.41826378 -0.31868112
C 1.39738179 0.63989118 -0.77040968
C -0.84334648 0.39050280 0.57850497
H -2.47675363 -0.90241897 1.40087967
H 2.06945364 -0.03663230 -1.30108840
H 1.03380638 1.39733890 -1.47167007
H 1.96238282 1.15435140 0.01324083
H -1.04047450 1.41574249 0.85427501
