11

O -2.2970114 -0.6264219 -0.42478296
C -1.1548512 -0.37789294 -0.15845615
C 0.114319034 -1.2126149 0.04186202
N 0.75881314 -0.05059983 0.7287404
C 0.8569191 0.98284054 -0.28452805
C -0.43875027 0.8101552 0.41479734
H -0.058027502 -2.0421333 0.733379
H 0.6532202 -1.5723699 -0.8382412
H 0.9569765 0.70366263 -1.332143
H 1.4527838 1.8380754 0.020255644
H -0.8443919 1.547299 1.0991169
