9

O 0.12143434 -1.6617422 -1.47392
C -0.6215522 0.33946922 1.123794
N 0.27587834 1.0878716 0.4673365
N -0.81173795 -0.8029753 0.4957913
C 0.023234738 -0.6811475 -0.5647731
N 0.71175486 0.43932533 -0.6412184
H -1.1037799 0.6563325 2.0397482
H 0.7667864 -1.377953 -2.136036
H 0.63798165 2.0008197 0.68927747
