9

O 0.75327093 0.25050389 -2.07807712
C 0.26409947 0.11033050 -0.83758531
N 0.99145491 -0.31064599 0.17685841
N -1.03062723 0.40633802 -0.56762129
C -1.10539711 0.14668120 0.72184577
N 0.07992842 -0.27867604 1.18064721
H 1.68296727 -0.01496302 -2.05347585
H 0.34701788 -0.55986440 2.10986579
H -1.98271462 0.25029575 1.34754217
