11

N 0.71536714 0.09190539 -2.80438236
C -0.59234404 1.37093340 0.74186273
C -0.71263644 0.05697089 0.59861624
C 0.46183574 -0.85490505 0.42728657
C 0.59342272 -0.61438011 -1.89230866
O 0.47708510 -1.44882362 -0.91773998
H -1.46062010 2.01522694 0.84627813
H -1.69099447 -0.41961020 0.57630676
H 0.37992638 1.85693668 0.76352462
H 1.41099906 -0.32957682 0.57766497
H 0.41795875 -1.72467795 1.08289075
