12

N 2.0554004 0.33994916 0.26009652
C -0.14471558 -0.069629245 -0.12166916
C 1.3890162 -0.2871814 1.342188
N 0.14198522 -0.5456683 1.2021149
C -1.4994081 0.44209132 -0.4535036
N -1.0465957 -0.8324699 -0.9834525
C 1.1358272 0.4709857 -0.6313553
H -2.2117097 0.4540655 0.36743745
H -1.439052 -1.591091 -0.4273852
H 1.9446553 -0.52851903 2.2429338
H -1.617017 1.233988 -1.1895386
H 1.2916143 0.9134794 -1.6078662
