14

C -2.3936868 -0.07709895 0.9720348
N -1.3523114 0.13621303 -0.014219359
C -0.032855902 0.036410898 0.34352642
O 0.35171393 -0.07578837 1.4925637
N 0.84136355 0.103291735 -0.73519367
C 2.2146037 0.0047494327 -0.5940917
N 2.964178 0.10943543 -1.6143056
H -2.0346508 0.29246014 1.9337827
H -2.6520202 -1.1367779 1.0843569
H -3.2870238 0.48126656 0.68284434
H -1.5921416 -0.023535203 -0.9794589
H 0.5181645 0.30571833 -1.6708376
H 2.5180047 -0.16625819 0.4389214
H 3.9366624 0.00991304 -1.3399234
