14

C -0.026908876 -0.2895311 0.18688184
N -1.043404 0.4294309 0.7540042
C -1.5842355 0.057143066 2.0468462
O 0.38065088 -1.3487052 0.6265679
N 1.9262083 0.2649156 -2.762146
C 1.5240774 -0.28458607 -1.6923747
N 0.4907748 0.2872651 -0.968845
H 1.9051213 -1.196882 -1.2309263
H -1.4868731 -1.0226011 2.158055
H -1.0471473 0.54200363 2.8713522
H -1.1700175 1.3852104 0.4628623
H -2.641103 0.3307586 2.0958798
H 0.08995808 1.1196003 -1.3780552
H 2.6828985 -0.2740225 -3.1701021
