11

N 0.30271403 -0.28846898 1.27687351
C 0.82767726 1.69325159 0.06498461
N 0.89917584 1.01332522 1.17696104
N -0.96069753 -1.54457517 -0.23083407
C 0.02547077 0.72426133 -0.79240586
C -0.21430705 -0.45656369 0.11364464
H 0.58264172 0.46211908 -1.69787572
H 1.35824714 1.31906623 2.02288793
H -0.91237313 1.19038043 -1.11607607
H -1.00860142 -1.77588834 -1.20921787
H -0.89994776 -2.33690766 0.39105781
