11

N 0.34353906 1.4718052 1.8272755
C 0.28558436 -0.63056076 -1.0621643
C -1.0347244 -0.5616822 0.883085
O -0.96963716 -0.5001792 -0.5345163
C -0.29708752 0.5742847 1.4753772
C 0.918147 0.5241238 -1.5296926
N 1.4310421 1.4593796 -2.109951
H 1.1338382 1.1548303 -0.5909086
H 0.8877472 -1.4866495 -0.7728305
H -2.0900133 -0.504741 1.1555954
H -0.60843533 -1.5006106 1.2587305
