11

N -2.011313 -1.337836 -0.8069889
C -1.7887791 -0.6781733 0.16955863
C -0.5648426 -0.15331 -1.0233399
O 0.6523602 -0.5640603 -0.57608056
C 0.98218554 -0.19513762 0.7532169
C 0.95178854 1.2669268 0.9588742
N 0.91399443 2.4145749 1.0917848
H 0.28256944 -0.6632003 1.4568938
H -0.63997537 -0.42756006 -2.0706844
H 1.9925886 -0.5723902 0.92475575
H -0.7705767 0.91016597 -0.8779904
