11

N -0.17620498 -0.74452790 -1.74784363
C 0.27067208 -0.73286348 -2.83132858
C 0.41686643 1.22311842 0.89444682
C -0.65918622 -0.73663069 -0.40698702
C 0.39378396 -0.19233298 0.53505819
O -0.09742666 0.23838290 1.78437095
H -0.32839941 1.89655517 0.47265254
H 1.35264349 1.68751953 1.19728380
H -1.56219238 -0.11996515 -0.34765073
H -0.93412117 -1.75869738 -0.12415263
H 1.32356492 -0.76055835 0.57415032
