11

N 0.45985514 0.3381419 -2.9282355
C 0.35970464 0.62973666 -1.8139163
C 0.20980996 0.9674453 -0.39323747
C -0.5976005 -0.087147065 0.34206638
C 0.0585869 -1.1820124 1.0558182
O -0.47468555 -0.060336653 1.749354
H -0.2798734 1.9438826 -0.30985627
H 1.199408 1.0572332 0.06877735
H -1.6129113 -0.23700826 -0.026029851
H -0.46841913 -2.122353 1.2081606
H 1.1461253 -1.2475822 1.0470989
