11

N -1.5344292 0.14995164 -1.1239969
C -1.8883387 0.382584 -2.2168853
C 1.465837 0.46279356 0.3270707
C -1.0430028 -0.15057167 0.17961943
C 0.4200843 -0.53585243 0.12139344
O 1.1016427 -0.45445466 1.3528312
H -1.1694666 0.7228515 0.82796824
H -1.6374987 -0.968205 0.6018222
H 0.6464833 -1.4198344 -0.47544846
H 1.1888999 1.4992187 0.5167478
H 2.4497883 0.31151876 -0.11112232
