11

O 1.1969079 0.63556725 -1.9686698
C 0.1642044 0.68534327 -1.3577437
C 0.04199091 0.16525136 0.053484846
C 0.8663395 -1.0032264 0.43947312
O 1.2007052 0.28860638 0.8692646
C -1.251818 0.3641938 0.7778309
O -2.2889137 0.6004099 0.2117881
H -0.7703915 1.0975012 -1.7844878
H 0.49810174 -1.6816604 1.2101672
H 1.5145277 -1.4207784 -0.3301864
H -1.1716542 0.26879218 1.8790791
