11

C 1.61645032 1.68369508 1.19901620
C 0.36472861 -0.14223711 -0.20937080
N 1.06691078 0.88540771 0.53654135
C -0.94225414 0.42551731 -0.74661885
N 0.12878714 -1.32416953 0.57780057
H -1.59810850 0.71844312 0.08102474
H -0.45725693 -1.09864740 1.37661603
H -0.75476807 1.30597825 -1.36763383
H -1.44690676 -0.33931189 -1.34247207
H 1.02048163 -0.41751819 -1.04085018
H 1.00193595 -1.69715737 0.93594711
