11

C -0.5240581 1.0421683 0.5430552
C -0.07597568 -0.047446493 -0.43162566
N 1.3781722 -0.14583817 -0.44896945
C -0.7200567 -1.3462993 -0.102135554
N -1.1637286 -2.3784287 0.1653333
H -1.6112602 1.1602951 0.53020287
H -0.21989611 0.79429185 1.5660036
H -0.05473968 1.9871514 0.2582991
H -0.4004878 0.22417252 -1.4417547
H 1.6793244 -0.85951793 -1.1047106
H 1.7127063 -0.43054858 0.46630216
