10

O -1.5641989 -1.147441 1.3172934
C -0.30625764 0.25797814 -0.38762775
C 1.0594305 0.39492682 0.28202477
O 0.5602848 -0.28613937 1.4700893
C -0.6437144 -0.52443033 0.8884453
O -0.28343114 -0.45908138 -1.586395
H 1.398448 1.4024961 0.5230354
H 1.8423659 -0.19042662 -0.2031033
H -0.86989826 1.1991795 -0.45712537
H -1.1930288 -0.6470618 -1.8466369
