10

N 1.1721369 1.4984164 1.032602
C 0.18116087 -1.5684885 -0.266329
C -0.5487419 0.61938435 -0.4271556
C 0.6043855 0.5036877 0.49108857
C -0.9535692 -0.6338001 -0.83210844
O 1.0521456 -0.78996235 0.5323695
O -1.027327 -1.5141711 0.35533834
H -0.8443821 1.5801926 -0.83077544
H -1.6000795 -0.89624065 -1.6588744
H 1.9642708 1.2009815 1.6038445
