11

N 0.5994456 1.967645 -0.6617485
C -0.029698394 -0.38362616 -1.0641474
O -0.7371488 -1.2457196 -0.19074407
C -0.35353532 -0.8810512 1.0974302
C 0.21529621 0.85146904 -0.22569875
O -0.054763027 0.51422316 1.0663544
H 0.7094065 2.640263 0.09391381
H 0.926527 -0.8219374 -1.3806648
H -1.1832706 -1.0528754 1.7838538
H 0.54699105 -1.4217546 1.4241445
H -0.63925034 -0.16663639 -1.9426935
