11

N -0.94888186 1.7819518 -0.62796396
C -0.4104977 0.60783356 -0.5546455
O -0.94175327 -0.6011079 0.32394803
C 0.09113328 -1.043149 1.0635148
C 1.045658 0.28726402 -0.40408376
O 1.3220543 -0.75873107 0.26426697
H -0.34374908 0.004717839 -1.5593034
H 1.8266481 0.647879 -1.071563
H 0.23342481 -0.49564156 2.0035694
H -1.9600492 1.6955734 -0.63761544
H 0.08601251 -2.12659 1.1998756
