11

N 0.29213694 0.3050435 1.9963459
C 0.11451682 0.10350157 0.76131004
C -0.6349685 0.84622365 -0.3409416
N -0.42526498 0.08540706 -1.5724036
C 0.2941331 -0.9149956 -1.2462903
N 0.65004116 -0.99196666 0.08838859
H -0.1735118 1.1565545 2.3022199
H -1.7064737 0.9108619 -0.11847893
H -0.2636751 1.8696362 -0.45928797
H 0.6275148 -1.6805525 -1.9402338
H 1.2255512 -1.6897136 0.52937174
