11

N -0.24426739 0.94489460 0.61032173
C 0.60492506 0.10191188 1.32371969
C -0.54625555 0.41280207 -0.62437641
N -1.33092297 0.97158661 -1.47089088
C 0.85898858 -0.96115675 0.55306557
N 0.17938233 -0.77152341 -0.65330117
H 0.95268279 0.34985432 2.31416057
H -1.42648610 0.40894635 -2.31034873
H -0.62091462 1.82425270 0.91285954
H 0.10455104 -1.44849997 -1.39105918
H 1.46831677 -1.83306837 0.73584925
