11

N -1.0037723 0.3302214 -1.9396524
C -0.40763193 0.13944885 -0.8203882
C 0.65771264 -0.68312323 1.0335966
N 0.16593014 -0.98458254 -0.23935997
C 0.43883035 0.6189872 1.2461288
N -0.2031739 1.1267532 0.11888058
H -0.50533867 2.0712943 -0.0334398
H -1.0592369 -0.528847 -2.4775288
H 0.103948414 -1.9050491 -0.6356975
H 0.6848881 1.2432809 2.0905795
H 1.1278441 -1.4283838 1.6568812
