11

N -1.6859336 0.16432524 -0.3176083
C -1.0369414 -0.6437653 -1.0973018
C 0.56895643 0.2172773 0.20374791
N 0.31245977 -0.657773 -0.8477372
C -0.7306463 0.73417133 0.5045183
N 1.8114748 0.30153248 0.75761026
H 1.8567141 1.1160469 1.3706578
H 0.3275737 -0.21863084 1.3064405
H -0.96909374 1.4765859 1.254541
H 1.0274968 -1.231403 -1.2645832
H -1.4820604 -1.2583671 -1.870285
