12

N 0.73215115 -0.89080596 -1.2202084
C 1.0316578 -0.5318492 0.180332
C -1.0312915 0.16221379 1.4850684
C -0.19526409 -0.057627134 -1.7209477
N -1.8576277 -0.16282581 2.2286544
C 0.013703972 0.586373 0.5291419
N -0.55946743 0.86149454 -0.78919846
H -1.3721799 1.4469943 -0.89459604
H 0.9594185 -1.4076419 0.8289657
H -0.29121116 -1.3245996 -1.7900537
H 2.0585968 -0.15353715 0.22444586
H 0.5115135 1.4718114 0.9383964
