11

N 1.9967494 0.40667596 0.8352457
C 0.6286105 -1.1730793 0.3087887
C 0.92106533 0.95344055 0.3422223
N 1.8104898 -0.9506332 0.8140856
C -1.3208954 0.18676467 -0.5558219
N 0.013861756 -0.0010858797 -0.015307442
H 0.74919474 2.0138326 0.22108479
H 0.17566673 -2.1428177 0.15572427
H -1.3472967 1.1125405 -1.1343321
H -2.0619013 0.24019636 0.24685158
H -1.5655446 -0.64583474 -1.2185416
