10

N 2.055846 2.205071 1.5577574
C -1.451349 -0.06781204 -0.4941684
O -0.53003687 0.7795148 -0.047260553
C 1.4612039 1.3646427 1.036124
C 0.74445945 0.2662045 0.37980485
N -1.0256557 -1.3396116 -0.5940405
H -1.3395057 -0.6386233 -1.6276364
H 1.3165731 -0.09120438 -0.4814775
H -1.8486298 -1.9089309 -0.8044477
H 0.6170943 -0.5692509 1.075345
