13

C -0.29551983 -0.0017094341 1.2459089
C -0.38703665 0.30658433 -0.24357429
N -1.561864 0.31363395 -0.9003938
O 0.72763884 -0.9232942 1.5484779
C 0.86382973 0.88845766 -0.85530597
O -1.1266495 -1.2043935 -0.686172
H 0.67165697 1.959782 -0.9909649
H -1.2816232 -0.32107326 1.6024364
H -0.79409355 -1.3937556 -1.5746826
H -0.030572698 0.93807185 1.7475495
H 1.0263665 0.4694011 -1.854103
H 1.7435286 0.740202 -0.2240719
H 0.44433913 -1.771907 1.1848959
