10

N -1.92167993 0.01194292 -0.32421825
C 1.74581766 -0.85693430 -0.96502421
C 0.97275257 -0.21286135 -0.14039073
C 0.22179359 0.44725869 0.70911318
C -1.24734825 0.55831062 0.60838575
H 1.98046467 -1.90700422 -0.80946170
H 2.16147303 -0.36584399 -1.84034765
H 0.70035419 0.94953376 1.54773755
H -1.70162295 1.15398800 1.41045184
H -2.91200431 0.22160985 -0.19624597
