10

N -0.15659212 -0.75015074 -0.84557074
C 1.0608695 -0.2846765 -0.41983512
C 0.8354379 0.5966737 0.60988736
C -0.57239515 0.66394216 0.81098205
C -1.1572633 -0.1785119 -0.103349335
H -0.29549906 -1.4121366 -1.589644
H 1.9771409 -0.61908245 -0.8834947
H 1.5926155 1.1356864 1.1631768
H -1.0898862 1.2658452 1.5456194
H -2.1944277 -0.41758928 -0.2877719
