10

O 2.12143822 -0.60335939 -0.09917069
C 0.81324516 -0.30501921 -0.14390856
N 0.27800387 0.49924631 0.80294973
C -1.07463353 0.61599176 0.48925602
C -1.24388903 -0.13457276 -0.63195916
N -0.04979612 -0.71428807 -1.02866401
H 0.77485291 0.91745381 1.57244367
H -1.75048780 1.20619238 1.08818097
H -2.15433966 -0.30204581 -1.18981181
H 2.28560621 -1.17959897 -0.85931588
