10

O 1.2904153 -0.1478178 1.8881687
C 0.49557897 -0.1567607 0.8807431
N -0.6143767 -0.8038021 0.46680558
C -0.01212989 0.67967147 -1.0782714
C -0.94515586 -0.2676894 -0.79474604
N 0.88004684 0.735666 -0.022198845
H -1.8051059 -0.61640805 -1.3471174
H 1.7333965 0.79588014 0.9879707
H -1.0979478 -1.5292706 0.9692567
H 0.075278595 1.310531 -1.9506114
