10

O 2.363956 -0.39717606 0.2734159
C 1.1734058 -0.19607739 0.13503735
N 0.33152395 0.5721582 0.92370844
C -0.9740164 0.5522488 0.4358265
C -0.97656995 -0.22386971 -0.6628268
N 0.32600886 -0.67927927 -0.84923166
H 0.6617497 1.0601277 1.7381196
H -1.7758877 1.0903101 0.91390336
H -1.7825272 -0.49322784 -1.326791
H 0.65235716 -1.2852145 -1.5811614
