9

C 1.13248271 -0.42963270 -1.18129730
C 0.30070803 0.06960032 -0.28760736
C -0.49828797 0.55618824 0.57251863
C -1.32530714 1.06044427 1.46035913
O 1.27384493 -1.73485288 -1.50435739
H -1.36967800 2.13002151 1.63842267
H 0.66377473 -2.26094726 -0.97381942
H 1.80723369 0.19171262 -1.75863289
H -1.98477095 0.41746584 2.03441391
