11

C 0.5535308 -0.45623824 -0.5583031
N -0.7377329 -0.799806 -0.18975191
C -0.63442683 0.9802914 -0.7703578
N -0.71446925 -0.9391613 1.1438214
C 0.5729488 -0.75507617 1.484134
N 1.4045079 -0.44591668 0.49346453
H -1.0490179 0.88261265 -1.7688762
H 0.89562607 -0.8589171 2.5148194
H 0.8896669 -0.52990437 -1.5876621
H 0.20462017 1.6766636 -0.73013955
H -1.3852539 1.245452 -0.0311485
