11

C -0.9361078 1.3033531 0.29480198
N -0.08816841 0.16067578 0.027555501
C -0.3806411 -1.1513469 0.009829822
N 0.6946517 -1.8584018 -0.275926
C 1.6392753 -0.89643687 -0.4240458
N 1.2172107 0.33973616 -0.2504081
H -0.5751231 1.8283682 1.1817569
H -0.91444486 1.9804742 -0.5615409
H -1.9574282 0.9541034 0.46292728
H -1.3703772 -1.543881 0.2030341
H 2.6711528 -1.1166444 -0.66798466
