9

N 1.1828474 -0.050942652 0.9465277
C -0.93008417 0.1777579 0.2887826
C -0.15562524 0.09588673 -0.8775859
C 1.140089 -0.025244422 -0.40029874
N -0.039727923 0.1283985 1.4193915
H -0.80568147 -0.83504045 1.0589346
H 2.059025 -0.12092479 -0.9671246
H -1.9531404 0.50424016 0.43334645
H -0.49770254 0.12586905 -1.9019736
