10

O 1.0922239 -1.3401896 1.3513297
C 1.503877 0.6133005 0.042318422
C 0.67092365 -0.3272304 0.5855086
N -0.6533446 -0.107074134 0.32899663
N 1.1475309 1.4604758 -0.8595016
C -0.8828057 0.4708554 -0.9223018
N 0.016558306 1.083295 -1.6106817
H -1.4071552 -0.20739566 0.999099
H 0.39436114 -2.009898 1.4143447
H -1.8821695 0.36386132 -1.329112
