10

O 1.95158852 -0.98864128 -0.17042277
C 0.87621453 0.63264031 1.21309057
C 0.86517547 -0.31634303 0.22679752
N -0.10336528 1.43126917 1.45922716
N -0.37737301 -0.56915986 -0.28321276
C -1.19974313 0.56006949 -0.31405393
N -0.99467874 1.62197302 0.38459780
H -2.04395817 0.52580320 -0.99361046
H 1.77620928 -1.41048119 -1.02528292
H -0.75006949 -1.48712973 -0.49713016
