12

N 0.74107707 -0.3584014 0.97621506
C -0.0078401035 0.37932256 0.006659142
C -0.59232247 -0.6750035 -0.93518823
C 0.43161878 -1.6975042 0.72430533
N -0.32391107 2.8902743 -0.09451968
C -0.0919013 1.6756796 -0.08437738
N -0.24471755 -1.9577156 -0.3131328
H 0.7712259 -0.03344026 1.9327099
H -1.6789889 -0.5898756 -1.0352687
H 0.8183017 -2.4576879 1.4009464
H 0.3342073 3.441708 -0.6393682
H -0.15674944 -0.6173564 -1.9389809
