12

C -0.63012594 -0.15418729 0.39568976
N -0.2688326 -1.2049649 -0.5566773
C 0.4927872 0.6809184 0.9501916
N 1.6679659 0.5164074 0.28596294
C -1.0170103 -0.04997319 -1.0330822
O 0.3177114 1.4495693 1.87554
H -1.4233176 -0.33721578 1.1157933
H -0.46175748 0.61810803 -1.6854329
H -0.8695228 -2.0151622 -0.4370165
H -2.06961 -0.17339379 -1.2799015
H 2.485423 0.97445357 0.6615438
H 1.7762893 -0.30455968 -0.2926109
