12

C -0.765659 1.176231 0.0045555136
N -0.1844811 -0.15388863 -0.14332819
C 1.065059 -0.41288364 0.40321726
N 1.7040541 0.48649913 1.0315721
C -0.85801333 -1.1482282 -0.8202251
O -1.9429737 -1.0213854 -1.3331409
H -1.7421088 1.159876 -0.48071733
H -0.11496455 1.9203128 -0.46183643
H -0.8642688 1.4218343 1.0646982
H 1.4002819 -1.4437664 0.22516365
H 2.5900373 0.112609684 1.3551946
H -0.28696316 -2.0972106 -0.8451535
