12

C 0.82947576 -1.1836162 0.09260156
N -0.310865 0.07947269 0.16128056
C 0.6590924 0.94704336 0.09016364
N 1.7638205 0.22553909 -0.019630615
C -1.6982452 0.18124089 -0.19804944
O 0.8035515 -1.9536475 -0.84054387
H -1.9849513 1.2292047 -0.34941095
H -2.3318808 -0.25259766 0.58195966
H -1.8733951 -0.36931717 -1.1295185
H 0.5684743 2.0351248 0.116020784
H 0.9131453 -1.4628332 1.1556649
H 2.6617775 0.52438617 0.33946246
