12

N 1.3717583 1.0566827 -0.19037078
C 0.16862765 0.3657773 -0.5309258
C -1.0390586 0.43883878 0.44189537
O -1.6201354 -0.81095827 0.17361207
C 0.15643358 -1.1473718 -0.39532152
N 0.41823378 -2.206204 0.10607848
H -1.7165695 1.2621698 0.18953905
H -0.7300223 -1.8914937 0.49088573
H 2.0785668 1.0082924 -0.91255605
H 1.7633026 0.72943205 0.685318
H -0.6919364 0.5581383 1.4794068
H -0.15920037 0.63669616 -1.5375614
