12

N 0.13149785 -1.70411209 -0.24885066
C 0.52701562 -0.31702088 -0.22627665
C -0.16900603 0.63190515 -1.21239643
O -0.53567345 1.52137466 -0.11582544
C -0.03406141 0.64434790 0.81229629
N -0.09527788 0.65120735 2.06492163
H -1.06025889 0.21403641 -1.68719462
H -0.86019435 -1.78922485 -0.04240602
H -0.60375569 1.46566185 2.41051675
H 0.62541443 -2.21317779 0.47489290
H 1.61669521 -0.25232980 -0.28739188
H 0.45760460 1.14733178 -1.94228570
