12

N -0.7432352 -1.0239983 -1.0339472
C -0.23523858 -0.63378274 0.277851
C 0.56816363 0.6637356 0.08593713
O -0.17015336 1.5746809 -0.67539936
C 0.89110374 1.2590469 1.3970597
N 1.1537423 1.6798626 2.4401715
H -0.039151642 -1.5319285 -1.5595697
H -1.5546958 -1.6202768 -0.95107794
H -1.0947492 -0.41125405 0.9223756
H 0.38263783 -1.3896302 0.7783535
H 1.5269241 0.42380878 -0.40312937
H -0.6853478 1.0097355 -1.2786247
