10

N 1.0336844 -1.290882 -2.4058945
C -0.20049146 1.4113897 0.79627854
O 0.82908046 1.4578693 1.4307631
C 0.661003 -1.1137276 -1.3274238
C 0.14934449 -0.8905869 0.03315302
N -0.65654284 0.30780756 0.13217309
H 0.9903012 -0.7641 0.71933305
H -1.487556 0.3891496 -0.43408528
H -0.8981252 2.2649891 0.7124008
H -0.42069775 -1.7719088 0.34330192
