10

N -1.3155214 -0.64407563 -1.1620282
C -1.2072837 -0.7476378 0.09002162
O -0.17893934 -0.21771641 0.7751419
C 0.7681486 0.4747139 -0.032848373
C 1.8207623 0.9808408 0.85192287
N 2.672002 1.3996704 1.5128492
H -2.1635427 -1.1049588 -1.4854361
H -1.8809237 -1.249049 0.79059875
H 0.28807828 1.3057147 -0.5586102
H 1.1972198 -0.19750188 -0.7816111
