11

N 1.79701003 1.09986037 -0.12058495
C 0.01619435 -0.61700771 0.51551002
O -0.30115163 -0.30268057 1.83525080
C 0.78364596 0.38923197 -0.31993501
C -1.03246753 -0.46828057 -0.60541434
O -0.09940723 0.35005264 -1.37239867
H -1.31716979 -1.36523116 -1.15859362
H 0.48528700 -1.60422472 0.51904811
H -0.37315036 0.65708397 1.91246148
H 1.95448662 1.74892354 -0.89258238
H -1.91327760 0.11227236 -0.31276172
