11

N 1.2669408 1.3663894 0.9906158
C -0.36259764 -0.54235387 -1.107329
O 0.6617554 0.49544483 -1.1543443
C 0.7274575 0.53975886 0.21777713
C -0.17069253 -0.66554266 0.4178857
O -1.2577182 -0.56619 1.2837552
H 1.7186434 2.120992 0.47234792
H 0.38737628 -1.5630689 0.6965678
H -1.5464107 0.35487247 1.3081243
H -1.3389326 -0.14231378 -1.3993078
H -0.085822 -1.3979883 -1.7260923
