10

O -0.952384 1.8562729 0.9962001
C -0.2948677 1.104856 0.025372978
C -0.1407476 -0.3390446 0.46558866
O -0.5692331 -0.7037928 1.5404574
C 0.5370367 -1.2357696 -0.4590264
C 1.1017207 -1.9492669 -1.246211
H -1.148792 1.2424158 1.7219741
H 0.7084344 1.5067616 -0.1820366
H -0.842574 1.1138374 -0.92803586
H 1.6014066 -2.59627 -1.9342834
