10

O 0.7737098 0.81388193 2.171151
C 0.13369147 -1.710361 -0.31835407
C -0.5680527 0.9089043 -0.059023872
O -0.09735875 1.7309414 -1.0772011
C 0.18208064 0.5052214 1.1820306
C -0.10103388 -0.5130629 0.1828681
H 0.60624605 -2.4849114 0.28129184
H -0.15418237 -1.9699612 -1.3325078
H 0.8637032 1.6505649 -1.10237
H -1.6388035 1.0687824 0.07211554
