11

N 0.91340007 -0.15212052 0.79823556
C -0.06239893 0.45739416 0.08075570
N -0.28588783 1.83319528 0.19018163
N 0.95134157 -1.48967724 0.61538357
C -0.70357283 -0.54146025 -0.62074231
C -0.02805855 -1.72153945 -0.23625134
H 1.52487032 0.27029275 1.47645107
H 0.52161473 2.39266222 -0.05933157
H -1.08085288 2.11846661 -0.36817201
H -1.52746184 -0.43343238 -1.31105869
H -0.22299420 -2.73378122 -0.56545160
