10

O -0.54222600 -1.82347721 -0.52408109
C -0.21151458 0.25150221 0.68915148
C 0.02459352 -0.58882479 -0.51957203
C 0.40907047 1.55541206 0.79147128
N -0.79949265 1.64049536 0.47951133
N 0.74235022 -0.16348747 -1.47088574
H 0.76759003 -0.85094042 -2.22453051
H -1.13370346 -1.92454357 0.23400622
H 1.27778839 2.17584042 0.95428256
H -0.53445580 -0.27197650 1.59064658
