11

C -0.86823450 -0.23248920 1.18408439
C 0.19076426 0.12639465 0.55997926
N -1.09295535 0.42475163 -0.13063648
C 1.61093977 0.41140016 0.32514500
C -1.34727734 -0.37447220 -1.26253604
O -0.49526886 -0.73143465 -2.03398181
H -1.47314940 -0.52302802 2.02387110
H 2.20941810 0.15251496 1.20011670
H 1.94840049 -0.16889452 -0.53787576
H 1.74248905 1.47378746 0.09721400
H -2.42512614 -0.55853037 -1.42538071
