11

C 0.9040929 1.4284862 0.110179216
C 0.14855371 0.24383645 0.5333095
N -1.0825641 -0.46136186 0.085038036
C -0.23200412 -0.72808677 1.2751479
C -0.91576016 -1.2525722 -1.068564
O -0.21324408 -0.9432651 -1.9955319
H -0.30225572 -1.3269689 2.1650813
H 1.3834908 1.2160771 -0.84924066
H -1.5736145 -2.140979 -1.0792819
H 1.6615149 1.691538 0.85037446
H 0.22179037 2.2732959 -0.026511585
