11

C 0.51013213 -0.9626431 1.5010725
C 0.1655651 -0.124520704 0.31904128
N 0.6344184 1.0343487 -0.00944556
C -0.033000518 1.3581593 -1.1815028
C -0.87865275 0.35853428 -1.4988849
O -0.7630265 -0.6066065 -0.54239917
H -0.38217857 -1.1948016 2.088442
H 1.2163215 -0.4153452 2.1260676
H 0.9654428 -1.909853 1.1956825
H 0.1463785 2.286912 -1.7034113
H -1.5814 0.17581573 -2.2946625
