12

O 0.32028264 -1.25672543 1.28278508
C -0.64579206 -0.26017009 1.24927306
C 0.68160703 0.85601896 -0.39060415
O -0.18083512 0.97757431 0.72229126
C -0.00656335 0.11598721 -1.52732457
O -0.12161092 -1.09419616 -1.53101759
H -1.53087311 -0.57687312 0.67483397
H 0.35317194 -1.64699312 0.39525481
H -0.93484413 -0.02989473 2.27658371
H 1.59879287 0.31192889 -0.12772520
H 0.92624761 1.87964421 -0.69084616
H -0.45958340 0.72369887 -2.33350446
