11

N 1.5775661 -0.6143426 -0.39237034
C -0.6884095 -1.3752841 0.121904366
C -0.2550467 0.8396639 0.083485745
N -0.35266778 2.1303349 0.15168354
C 1.1669261 0.6109872 -0.25668922
C 0.5952638 -1.6003369 -0.18172073
O -1.1759837 -0.07252616 0.27098414
H 0.9268203 -2.6304457 -0.27918085
H -1.1981686 2.6589286 0.33778912
H 0.8658153 2.1639738 -0.13700537
H -1.4621152 -2.110953 0.2811196
