11

N 1.47033711 -0.01465389 1.09674823
C 0.91482697 -1.08583293 0.54446906
C 0.92586147 1.24414476 0.92201867
N -0.74222580 -1.66302583 -1.10834965
C -0.25363638 1.45772783 0.31979559
C -0.24713211 -0.74549033 -0.29924915
O -0.90856371 0.40882290 -0.27289738
H -0.29547433 -2.56808119 -1.06452473
H 1.47134240 2.07781771 1.35299719
H -0.81720480 2.37864229 0.23515799
H -1.51813070 -1.49007138 -1.72616577
