11

O 0.14818874 -1.1724932 1.6278083
C -0.76551646 0.668038 0.123592846
C 0.559409 -0.16511029 0.8679621
N 0.018764196 0.89332837 -1.082806
C -0.76246566 -0.77357215 -0.11309933
C 0.562553 -0.4132433 -0.68604606
H -1.4703492 -1.591913 -0.16258164
H 1.2457724 -1.0152805 -1.2781242
H 0.66065806 1.6807522 -1.0772974
H -1.5153524 1.3302884 0.53919303
H 1.3183383 0.55920535 1.2413985
