12

C -0.62444335 -0.01835139 0.79621750
C -0.28990404 -0.64077807 -1.45819365
N -0.06262391 0.56163445 -1.78690959
C 0.76476269 0.33757521 1.29695473
O -0.58045911 -1.03665802 -0.21112505
H 1.29181706 -0.55675567 1.64366871
H -1.22711462 -0.45995784 1.59320929
H 0.68648860 1.04011258 2.13359228
H -0.29534806 -1.51365308 -2.11944750
H 0.13014051 0.61591878 -2.78277412
H -1.13852467 0.86061764 0.39423593
H 1.34520891 0.81029520 0.50057143
