12

C 0.74251896 0.5418173 -0.19459425
C 1.3403672 -0.7141578 0.35294983
N -1.3003178 0.73980737 0.4738987
C -1.6391629 -0.025352055 -0.5158102
O -0.7377273 -0.44688994 -1.2879554
H 1.0128063 0.8004874 -1.2110835
H -2.0340385 1.0810217 1.0880101
H 0.7849584 1.3943222 0.47264713
H 2.3558118 -0.48115245 0.70591104
H -2.6804414 -0.32141083 -0.6999623
H 1.3906549 -1.5045995 -0.39813352
H 0.7645701 -1.0638936 1.2141225
