12

C -0.3497567 -1.1040337 0.98029363
C -0.25930116 -0.6286123 -0.46812162
N -0.2647803 0.8197184 -0.5861334
C 0.87712 1.550521 -0.49631903
O 1.9957298 1.0838623 -0.41143712
H -0.34516674 -2.1970887 1.0268086
H -1.2706662 -0.74762046 1.4562839
H 0.5060443 -0.72738296 1.5493258
H -1.0938342 -1.0178862 -1.0593499
H 0.6716702 -0.9805735 -0.92378414
H -1.14565 1.3104705 -0.5375206
H 0.678591 2.6386254 -0.53004616
