11

C 1.4527059 -0.37513605 -1.0222647
N -0.49539486 0.028919453 0.38393492
C -1.5074563 0.7121728 0.9655425
O -2.1439471 -0.19609945 1.7119076
C 0.4363581 0.6177376 -0.50048745
O 0.40773323 1.7818046 -0.80031013
H 2.1631334 0.15032065 -1.6601976
H 1.988169 -0.8578739 -0.19671042
H -0.38531634 -0.965607 0.57804036
H -2.8723133 0.26401916 2.1454294
H 0.95632845 -1.1602579 -1.6048841
