11

C -1.4716774 0.7943909 -0.4509244
N -0.47992447 -0.0881877 0.1265551
C 0.840387 0.025622835 -0.12551612
O 1.3871337 0.84330255 -0.8418842
C 1.6739933 -1.0241445 0.6095642
O 1.1926674 -1.8595506 1.3293219
H -0.9514204 1.5189114 -1.0799111
H -2.181491 0.23064436 -1.0633487
H -2.0173545 1.3278859 0.3339613
H -0.75077766 -0.83421063 0.7514578
H 2.7584636 -0.9346644 0.4107243
