11

C -1.22203022 0.81992797 1.24348193
N -0.41973155 0.06135008 0.46229866
C 0.43393140 0.59478218 -0.52955973
O 0.52121278 1.77316161 -0.75220045
C 1.20662267 -0.47519975 -1.27057209
O -1.85341411 -0.05608657 2.03157632
H 1.87392946 0.00422906 -1.98654696
H 0.51992104 -1.14093077 -1.80675802
H -2.43287416 0.45740760 2.60665665
H -0.42037853 -0.95141233 0.57714181
H 1.79281079 -1.08722896 -0.57551803
