11

C 0.594397 -0.1378137 0.52733934
N -0.495631 0.4196751 -0.1692338
C -1.1341578 1.5638449 0.17365107
O 1.0547302 0.37870377 1.5099725
C 1.104057 -1.4222052 -0.081855446
O -2.1270857 1.8962275 -0.6031664
H 0.3127343 -2.1796308 -0.10739304
H 1.4427371 -1.255912 -1.1103714
H -0.8569658 -0.05069957 -0.9986867
H 1.9362631 -1.7853734 0.5214983
H -1.8310786 2.5731835 0.33824533
