10

O -0.7744602 0.65949607 -1.106906
C -0.097216584 -0.004800937 -0.08992055
C 0.8003548 0.47660518 0.9451786
C -0.27273437 -0.6792808 -1.3518633
N -0.49514815 -0.20574795 1.2474297
H -1.2085216 0.4564955 1.5394622
H 0.5451103 -0.7299826 -2.0678847
H 1.6875827 -0.07916445 1.2364478
H 0.854493 1.5509307 1.0918715
H -1.0394596 -1.4445509 -1.443815
