10

O 0.1699214 1.6264883 -0.467263
C -0.07481372 0.4125991 -0.12701228
C -0.784887 -0.097696394 -1.2445912
C 0.84010386 -0.5291318 0.6652437
N -0.42306337 -0.028575545 1.2242444
H -0.25506064 0.75615704 1.8570487
H 0.8793131 -1.6033432 0.4955628
H -1.84891 -0.32690373 -1.1884416
H -0.27363405 -0.14853647 -2.196037
H 1.7710303 -0.06105713 0.98124576
