10

O 0.45238923 0.45134674 -1.36073316
C 0.20330029 0.48026385 1.22028622
C -0.01374684 -0.00313533 -0.13176122
C 0.28284905 -0.97446476 -1.15488345
N -1.15029984 0.41711237 0.58856794
H 1.21255659 -1.53918469 -1.12551505
H 0.34976056 -0.20074216 2.05435528
H -0.53371755 -1.42283991 -1.71536514
H -1.47136377 1.33625264 0.29727742
H 0.66827253 1.45539094 1.32777132
