11

N 0.88370178 -0.35005273 -2.63537097
C 0.06263156 -0.32504714 -1.82028929
C 0.44508090 0.19161463 1.19627198
C -1.00680355 -0.24626282 -0.86363006
C -0.83871919 -0.01364155 0.43788170
O 1.62722955 -0.13797031 0.52282597
H 1.72294220 0.41463922 -0.26143560
H 0.44056390 1.22879398 1.56914451
H -1.74001562 0.05718068 1.04288672
H -2.00691548 -0.36809313 -1.27030072
H 0.41030386 -0.45116080 2.08201594
