11

N 1.2458651 0.4617174 -1.9994441
C -1.0329574 -0.076699615 0.5046251
C 0.30929762 -0.54675764 1.0366315
C -0.96057636 0.6235461 -0.6286985
C 0.38666862 0.6389222 -1.179497
O 1.2726486 0.17924371 0.32337013
H -1.9679147 -0.31425422 1.0046382
H 1.7318116 -0.0062795323 -0.8591841
H 0.4052229 -1.6359158 0.8952162
H 0.39763063 -0.33634153 2.109055
H -1.7876967 1.0128187 -1.2067126
