11

C -1.07100694 -1.57456259 1.30111196
C 0.91710694 0.70624513 -0.68209451
C 0.34427434 -0.56544300 -0.27316099
C -0.18007642 -0.59595623 1.05570221
O 2.02998852 0.88048062 -0.19789690
N 0.32127278 1.54133685 -1.58170190
H -0.42950472 1.17047690 -2.14421936
H 0.93575885 2.20587672 -2.03089504
H -1.22314527 -2.35128411 0.55472426
H -1.67263814 -1.59857169 2.20453121
H 0.02796999 0.18140133 1.79389870
