11

N 1.0396836 0.13044392 1.7676288
C 0.37374422 0.060035467 0.5401705
C -0.9707232 0.12589847 0.27327004
N -1.0545493 0.063816294 -1.1107646
C 0.20753618 -0.023993421 -1.5856539
N 1.0966303 -0.03562095 -0.62073463
H 2.0105588 -0.12574995 1.6453993
H 0.615614 -0.43064135 2.4928324
H -1.8436536 0.22472565 0.8980471
H -1.8990396 0.09150882 -1.6567038
H 0.4241988 -0.08042286 -2.6434908
