13

C -1.1528357 -0.8377177 1.0080868
N 0.4102358 0.099628195 -0.68030185
C -0.056280766 -0.020684492 0.5522321
O 0.33408335 0.728329 1.5336403
C 1.3008387 1.1693299 -1.0992302
O -1.9922072 -1.367749 0.007482955
H -0.74340624 0.3363751 1.9503078
H 2.3153486 0.79025495 -1.2525542
H -0.7815798 -1.5909572 1.7137219
H -1.8745883 -2.3240557 -0.034729708
H 0.9356533 1.6140848 -2.0280292
H -0.011949055 -0.51504916 -1.3621982
H 1.3166871 1.9182111 -0.3084289
