11

O 1.6787955 0.66844183 -0.5164784
C 0.7612467 -0.047525607 0.24826841
C -0.335763 0.6904856 1.04601
O -1.3510967 -0.1471985 0.41826925
C -0.42414647 -0.68746775 -0.44097176
N -0.55984473 -1.3753527 -1.4809917
H 1.2588558 0.90151185 -1.353871
H 1.3178234 -0.75723195 0.86752075
H -0.3433873 0.5746132 2.131678
H -0.45807338 1.7379794 0.7564214
H -1.5444096 -1.5582551 -1.6758552
