11

N 1.9152905 0.62356645 -1.2056508
C 0.88684577 0.2644562 -0.5645548
C 0.05401256 1.1209927 0.30264372
C -0.9358886 0.38327205 0.79639953
C -0.80747086 -1.0190877 0.27708614
O 0.35256663 -0.99279475 -0.55894184
H 2.3080964 -0.15621433 -1.7324306
H 0.2738994 2.167874 0.46454376
H -1.7261192 0.6946821 1.4678293
H -1.668775 -1.3328506 -0.32159412
H -0.65245795 -1.7538959 1.0746698
