11

N 0.46173996 1.275286 -1.1019468
C 0.891351 -0.37844914 0.6623024
C 0.4132139 -0.016666034 -0.7928715
C -0.51735514 -0.2530573 1.1914592
C -1.1165432 0.08268018 0.071434975
O -0.09615064 -0.9594153 -1.4933453
H 1.5787069 0.3704959 1.0583879
H 0.041189976 1.3751757 -2.0270467
H -0.9371174 -0.41122362 2.1774573
H -2.0186396 0.30453944 -0.46749777
H 1.299604 -1.3893657 0.721666
