12

N -1.16155300 -0.88241127 1.31357732
C -0.38228574 -0.26760121 0.34965564
C -0.37424293 1.05354499 -0.38846084
N 0.95415912 1.64497737 -0.35529555
C -0.29947493 -0.29909346 -1.06143133
N 0.94541031 -0.64165601 -0.31483016
C 1.67982799 0.60210149 -0.31965761
H -0.78658697 -0.77568386 2.24942917
H -1.34256887 -1.85754797 1.11374878
H -1.25103489 1.69059947 -0.42729474
H -0.74655244 -0.85145089 -1.87920606
H 2.76490253 0.58422131 -0.28023429
