12

N -0.4544253 -0.45506564 1.9148438
C -0.13918583 -0.13444652 0.6020525
C -0.92572194 0.72334933 -0.17417893
N -0.5949013 1.0817955 -1.410021
C 0.53781426 0.58059245 -1.894718
N 1.3647586 -0.24488525 -1.2581679
C 1.0197105 -0.5954753 -0.022598859
H -1.4311838 -0.38423076 2.1594796
H -0.032505095 -1.3029106 2.2671227
H -1.8538007 1.134041 0.22259568
H 0.8138025 0.87114286 -2.9047558
H 1.6956383 -1.2739071 0.49834654
