10

O 0.6085872 0.228612 -1.7908461
C -0.68158025 0.34182695 0.97291934
C 0.48017925 -0.43178013 0.606062
O -1.2442544 0.35920814 -0.30510533
C -0.098462276 -0.4138719 -0.81405264
O 0.58910674 0.96321726 0.94925576
H -0.44654435 -1.3715827 -1.2046869
H -1.3081337 0.44356254 1.851112
H 1.1208067 -1.1420478 1.1140081
H 0.980295 1.0228558 -1.378666
