10

O -0.12473806 -1.1822468 -1.0822546
C -0.066131 -0.47860828 0.115781814
C -1.3129497 0.37420744 0.33190387
O -1.4870552 1.0080879 1.3422245
C 1.1438653 0.44245273 0.14545049
O 1.9290625 0.44881356 -0.77348185
H 0.6725427 -0.92928743 -1.5771899
H 0.023376808 -1.1508545 0.98491126
H -2.021668 0.3756142 -0.5200745
H 1.243694 1.0918213 1.032729
