11

N -0.24227287 1.05461782 -1.09482391
C 0.89519158 0.38690878 -0.45558055
C 0.20321673 -0.62350972 0.43555918
C -1.21261537 -0.23543730 0.35763119
N 0.80184700 -1.55102274 1.05828365
N -1.40967734 0.74583538 -0.45218389
H 1.54259136 -0.10160047 -1.18944990
H -0.18040948 2.03953028 -1.30117488
H 0.14314490 -2.10700443 1.60104248
H 1.49702250 1.07849802 0.14607561
H -2.03803906 -0.68681560 0.89462141
