10

O 2.2222102 0.78506595 -0.20842667
C -0.11895859 0.5536981 -0.9178762
C 1.1085166 0.38790342 -0.038164623
O 0.7232792 -0.33565664 1.039505
C -0.6376133 -0.7195692 0.8727944
O -1.1880904 0.11614359 -0.11055246
H -1.1708276 -0.5665907 1.8127624
H -0.6649124 -1.7768327 0.57489455
H -0.00839822 -0.046866596 -1.8312544
H -0.26520523 1.6027049 -1.1936821
