10

N 0.893222 -1.0303934 0.6099763
C -1.2295096 -0.50990313 0.7455458
N 1.4971527 0.53139627 -1.0381542
O -2.4696827 -0.32557324 0.9084891
C 0.5962624 -0.028049316 -0.18847583
O -0.3575883 -1.3608314 1.2328582
N -0.7202447 0.3487012 -0.12430506
H 2.4568489 0.28137618 -0.8582729
H 1.342097 1.5005355 -1.2671404
H -2.008558 0.59274125 -0.020520732
