10

N 0.22443035 1.768517 0.39219603
C -0.20216604 0.48027095 0.1630252
N -1.400853 0.048884206 0.35981393
O -1.333383 -1.339628 0.10477601
C -0.079205245 -1.6991086 -0.2606974
O 0.2845513 -2.8110225 -0.5225744
N 0.64385116 -0.5151643 -0.25574052
H 0.7489632 2.177784 -0.36872238
H -0.53426903 2.368907 0.6849508
H 1.6480802 -0.47943962 -0.2970274
