12

C -0.8036767 -0.24293354 -1.0895526
C -0.08412495 -0.8523023 1.5410767
C 0.12153427 0.44899026 -0.4103726
O 0.5296486 0.22257908 0.86078596
N 0.807251 1.5578843 -0.9013382
H -1.0170249 0.01606128 -2.1181362
H 0.38150188 -0.89219785 2.5262754
H 0.7719133 1.6385567 -1.9057595
H -1.16163 -0.6844428 1.6533498
H 1.7478194 1.6319939 -0.5382689
H 0.08092631 -1.8018339 1.0181768
H -1.3741384 -1.0423551 -0.63623637
