12

C 0.63444013 -0.93834271 1.35107819
C -0.11477588 0.48681001 -0.36689373
C -1.09875952 -0.33541808 -0.75647878
O 0.76678780 0.27405249 0.63871213
N 0.14795257 1.73600579 -0.92491193
H 0.74729088 -1.80476934 0.68862359
H 1.13017761 1.97482332 -0.91147211
H 1.43192462 -0.94090213 2.09473699
H -0.33642133 -0.99470618 1.85709239
H -0.27003003 1.86509451 -1.83334222
H -1.32089592 -1.25677469 -0.23517809
H -1.71769156 -0.06587319 -1.60196602
