12

C -0.2953139 -1.0366087 0.12361559
C -1.5152829 0.8773589 -0.46233165
C 0.7104031 -0.043130025 0.08492128
O 0.44526362 1.0584763 -0.4819464
N 1.9281065 -0.17817487 0.6704267
H -2.2179427 0.10570741 -0.7573389
H -1.4313889 1.6607497 -1.2091489
H -1.6617432 1.2368283 0.54968715
H 2.5544927 0.61048114 0.65636176
H -0.23642385 -1.8303716 0.8680108
H 2.3162491 -1.091992 0.82184625
H -0.5964204 -1.3693249 -0.8641039
