10

O 1.89382080 0.56065191 -1.04129298
C 0.87031009 0.25617837 -0.47975346
N 0.62164424 -0.92579679 0.20533081
C -0.67289352 -0.88905501 0.71480732
C -0.44791191 1.01812936 -0.32367977
N -1.33626213 0.16874948 0.46136014
H -0.88359033 1.23649175 -1.30445695
H -0.27887098 1.97618737 0.17819134
H 1.28956775 -1.67267855 0.30403125
H -1.05581385 -1.72885818 1.28546231
