11

O -0.78413682 0.66462194 0.53430051
C -0.60376667 -0.76474770 0.91252827
N 0.72496866 -0.15975131 -0.82316437
C 0.09029309 -1.38769406 -0.29098955
C 0.11867846 0.89228457 -0.39064126
O 0.25959249 2.11239031 -0.88820478
H -1.60885476 -1.13583443 1.12651469
H -0.02964779 -0.73228769 1.85897655
H 1.31869965 -0.12469922 -1.63941983
H -0.37720505 2.69191720 -0.43941096
H 0.89137919 -2.05619966 0.03951067
