10

O -0.016722959 -1.377768 -0.9552216
C -0.40423495 -0.38648853 -0.052033294
C 0.6853008 0.009007176 0.9444001
O 0.6316081 1.3860592 0.4724388
C -0.2601526 1.0739264 -0.5056569
O -0.6923101 1.7719678 -1.3669639
H -0.65511185 -1.3980726 -1.6796179
H -1.3819022 -0.58254653 0.41048968
H 1.6526656 -0.444098 0.726413
H 0.44086012 -0.05198707 2.0057518
