11

N 1.0377977 -0.017179081 -1.5502785
C 0.27937615 -0.027127152 -0.37543905
C -0.37638307 0.9683286 0.31906295
C -0.87496793 0.3156169 1.4710523
N -0.5731449 -0.96824455 1.4944885
N 0.1332392 -1.1568332 0.35666454
H 1.0291103 0.8985575 -1.9814355
H 0.7336046 -0.7045687 -2.2276392
H -0.48301312 2.0043888 0.033120565
H -1.453688 0.7437843 2.2785761
H 0.5480691 -2.0567236 0.1818277
