11

N -1.6679199 -0.27773368 0.38812318
C -0.3054251 -0.06448017 0.4622773
C 1.8136382 0.057764985 -0.9277206
C 0.37792185 -0.040644176 -0.8668768
N 0.40821773 0.045519054 1.5134298
N 1.2648754 1.156499 -1.1730613
H -2.1354804 0.01516402 -0.45668063
H 2.7963874 -0.37404075 -0.82015383
H -2.203838 -0.118497744 1.2294077
H -0.18571335 -0.44341803 -1.7091056
H -0.16266398 0.043867547 2.360361
