11

N 0.24250604 1.31773387 1.32929738
C 0.73887974 1.74486292 2.30252138
C -0.34407652 0.77384868 0.15082848
C 0.58198662 -0.11888327 -0.69050252
C -0.40045034 -1.23168361 -0.31162912
O -1.21410622 -0.30638813 0.43826025
H -0.85146464 1.59233002 -0.36960732
H 0.61639524 0.14655699 -1.74820443
H 1.59124622 -0.21853273 -0.28900581
H -0.96060920 -1.67455911 -1.14033955
H -0.00030691 -2.02528567 0.32838091
