11

N 0.739628 1.7366185 2.3414412
C 0.25282893 1.3208382 1.3808334
C -0.3454158 0.7813076 0.14510919
C 0.5785632 -0.11839739 -0.70132977
C -0.40273982 -1.2308573 -0.31129378
O -1.2414819 -0.3004752 0.39999682
H -0.8349385 1.603012 -0.3888212
H 0.5904445 0.14236778 -1.7605076
H 1.5983825 -0.22366014 -0.32931286
H -0.9378836 -1.7119355 -1.1338303
H 0.0026125112 -1.9988186 0.35771456
