14

C 2.1217825 -0.16460781 -1.1975696
N 1.121092 -0.5432853 -0.21592642
C -0.034363676 0.20602517 -0.11622433
O -0.19062655 1.2720127 -0.6846768
N -0.997518 -0.36810946 0.69056517
C -2.1568549 0.42538372 1.0625855
H 1.8439357 -0.44839442 -2.2205946
H 3.07158 -0.6402193 -0.9413603
H 2.2482147 0.91828156 -1.1677084
H 1.0212393 -1.5356296 -0.052940384
H -0.652655 -0.99760145 1.4024985
H -2.9235904 -0.23867068 1.4671446
H -1.9239084 1.2000197 1.8043883
H -2.5483274 0.91479504 0.16981913
