10

O -1.1696495 -0.6314168 -0.046034683
C 0.11339843 -1.0443064 -0.4511857
C 0.84469426 0.16150257 0.17316575
O -0.64935243 1.6366589 -0.25401154
C -0.7971729 0.6108626 0.5385542
O 1.9001906 0.38106373 0.68532294
H 0.41052696 -1.9857286 0.028710488
H 0.43200555 1.194378 -0.608967
H -1.3282468 0.79638386 1.4723692
H 0.24360605 -1.1193981 -1.5379236
