10

O 0.20536711 0.36850185 -1.14995861
C 1.02294837 -1.04040677 0.82994413
C -1.12266157 0.80419012 -0.88116237
O -0.98877208 0.51484038 0.50882113
C 0.28040401 0.04450618 0.20270128
O 1.36953719 0.37572085 0.94638981
H -1.87730622 0.17762785 -1.36598192
H 0.65307516 -1.48763322 1.74989839
H 1.72987669 -1.62367530 0.24459920
H -1.27246858 1.86632811 -1.08525080
