11

N 1.3028122 -1.3198335 0.65142024
C 0.41975024 -0.65475976 0.06325041
C 1.0721762 0.7282101 -0.71171725
C -1.3234409 0.32120177 -0.34627086
C -0.0029974529 0.90407735 0.19515146
O -0.7961532 -1.0257057 -0.43985555
H -1.618218 0.6809262 -1.333651
H 1.0138152 -2.3098257 0.65165645
H -2.1492503 0.3552071 0.3697648
H 2.0481257 0.8827148 -0.23972407
H 0.03338007 1.4377872 1.1399752
