11

N 1.15317598 -1.66668805 0.22028140
C 0.72894736 0.82963675 -1.36567944
C 0.40420181 -0.67455521 0.33428575
C -0.84143993 0.89064784 0.63872369
C -0.37643740 0.20393382 -0.66359565
O -0.03406452 -0.01220834 1.44125599
H 1.02240570 0.10771376 -2.15320070
H -0.49248650 1.91600161 0.76673927
H -1.90085244 0.77616491 0.87950509
H -1.13561368 -0.35697096 -1.22284317
H 1.47216367 -2.01367605 1.12452769
