11

N 1.4544003 -0.5991676 1.2968831
C 0.47004953 -0.11025668 0.7050161
C -1.1732982 0.71675825 -0.13737392
C -0.24153401 -0.41194934 -0.62897724
C 0.8016768 -0.028985338 -1.5624391
O -0.3824775 0.88803065 1.0694114
H 1.4559064 -0.91859776 -1.6521815
H -1.143941 1.628886 -0.73459077
H 1.6201887 -0.15463054 2.1994994
H -0.6684189 -1.4219563 -0.6660695
H -2.1925519 0.41186866 0.1108218
