11

N 1.9162858 0.6222059 -1.205779
C 0.8862713 0.26679108 -0.56404936
C 0.054437574 1.1217465 0.3033185
C -0.9346211 0.3831264 0.7969984
C -0.80574846 -1.0203514 0.27724218
O 0.35096207 -0.99291736 -0.55964357
H 2.3036356 -0.15629897 -1.7352982
H 0.2727719 2.1685407 0.46569106
H -1.7255037 0.69666463 1.4677355
H -1.6694016 -1.3335156 -0.3202404
H -0.64908934 -1.7559918 1.0740248
