10

N -2.3607917 -2.1157758 -1.3876916
C -1.562975 -1.3877785 -0.97906274
C 0.5009851 0.40769175 1.1846789
N 0.21714857 0.18580817 -1.3330721
C -0.5321378 -0.45870093 -0.5333432
C 1.6353985 1.048522 1.0335612
N -0.46292728 -0.356653 0.862403
H 0.020687703 -0.04964844 -2.3027937
H 0.8333152 0.59897023 2.3025603
H 1.711297 2.127565 1.1527597
