10

N -0.4336068 -1.1073081 -1.3946761
C 0.34516475 2.3963068 0.14290781
C 0.017941367 -2.1821282 0.7211046
N -0.6292552 0.104394324 0.6017927
C -0.32551244 -1.0505011 -0.1362909
C -0.14013693 1.2008934 0.33646062
N 0.30321866 -3.102653 1.3599826
H -0.23952024 -2.044009 -1.7408487
H -0.11898446 3.0593274 -0.57978743
H 1.2206913 2.7256777 0.6893549
