10

O -1.6635497 0.18532425 -0.017864581
C -0.5099587 -0.18765935 0.022836817
C 0.64138037 0.7805914 -0.09057154
O 0.9099379 -2.0977721 0.24280846
C -0.21314119 -1.6691915 0.1908316
O 0.19413859 2.0891547 -0.24929172
H 1.2652518 0.6753303 0.81149304
H -1.120244 -2.302614 0.25988385
H 1.2699809 0.46410054 -0.9380505
H -0.77379596 2.0627358 -0.23207545
