10

N 0.16381668 0.058498796 -1.8347888
C -0.6641369 0.38034657 0.6436745
N 1.1578188 -0.72731835 -0.5630486
O 1.0245963 -0.8423041 1.6522663
C -0.0023430863 -0.16191123 1.7874622
C 0.08828525 -0.028689535 -0.42515558
H -1.5576035 0.9842632 0.6172681
H -0.41095206 0.02696875 2.7940264
H 0.5762161 0.8746207 -2.259436
H -0.37569752 -0.56447476 -2.4122689
