10

N 1.18928907 0.27642016 1.29905033
C -0.54408519 -1.74470616 -0.73027668
N 0.59966842 1.59080755 0.78227246
O 0.11498706 -2.53874940 -0.08751484
C 0.31723780 0.23465269 0.35819659
C -0.50446511 -0.30831681 -0.57294531
H -1.24804080 -2.09896978 -1.51440463
H -1.11625346 0.34393608 -1.18325073
H -0.03326706 2.07182548 1.41153035
H 1.22492919 2.17310002 0.23734175
