10

N -0.32388487 -1.0014992 -1.5098745
C -0.076511174 -0.44164145 -0.26859903
N -0.032230217 -1.1735717 0.81526715
O 0.3159415 -0.30676463 1.8412323
C 0.4538241 0.92142123 1.3372709
C 0.22378609 0.9300245 0.004388265
H -0.882051 -0.42627773 -2.1221402
H -0.6734401 -1.9490972 -1.4553877
H 0.723841 1.6913207 2.0459697
H 0.2707246 1.7560853 -0.6881276
