11

C 0.34053984 1.6489745 0.14316128
N 0.5757651 0.21604067 0.27490577
C -0.40783268 -1.9375631 -0.760703
O -0.08103895 -2.0666919 0.4680207
C -0.5500151 -0.5856691 0.34039497
O -1.6311072 -0.27350238 0.75402063
H -0.4100949 1.9384569 0.8819043
H -0.01918983 1.9300323 -0.8542885
H 1.271177 2.1775713 0.35806388
H -0.4184353 -2.900101 -1.3150098
H 1.3302319 -0.14754814 -0.29047018
