10

O 0.27432 -1.3638313 -2.4185152
C -0.22244795 -0.25840265 -0.37712827
C 0.6682216 0.57205516 1.3949556
N -1.2128154 0.23415385 0.31603017
O -0.7147609 0.75760216 1.448704
C 1.0851998 -0.1805458 0.27197126
C -0.5531522 -0.89325905 -1.6854622
H 1.1552684 1.301388 0.61552346
H -1.6358359 -0.88773775 -1.9190404
H 1.1560026 0.7185774 2.3529615
