10

O -1.7513245 1.7181765 -0.14001256
C -0.8742992 -1.4899008 1.0010736
C 0.15335456 0.5344928 -0.2914483
N -0.61983263 1.7375737 -0.550287
O 2.337721 -0.30468914 -0.74416405
C -0.32767296 -0.50380373 0.35856813
C 1.539614 0.58843815 -0.8359248
H -1.4031111 -2.274098 0.46500623
H -0.8217664 -1.5505081 2.086432
H 1.767317 1.5443186 -1.3492435
