10

C -0.61558396 -1.49093506 -0.97302998
N 0.64473388 -1.78614471 -0.65980765
N -1.04719569 -0.29022119 -0.52952091
C 0.07533682 0.08714896 0.07014794
N 0.22737688 1.36803999 0.76875018
N 1.10915145 -0.71925836 0.04299654
H -1.24060886 -2.16775393 -1.53899912
H 1.18670194 1.38006076 1.12650368
H 0.08641487 2.16414759 0.14276168
H -0.42632751 1.45491577 1.55019787
