11

O -0.8116223 -1.1877041 -0.37574697
C 0.13184893 -0.1992265 -0.023523401
C 1.4350798 -0.19285516 -0.7157849
C -0.14776428 0.5022243 1.1502001
O -1.2006174 0.2947318 1.8816212
C -1.2055577 0.08616106 -0.9129923
O 2.3511305 0.5266235 -0.40227932
H -0.77628607 0.117146716 -1.9379421
H 1.4795326 -0.9030356 -1.5666583
H 0.52555066 1.2716743 1.5171123
H -1.7812951 -0.3157403 1.3859936
