11

O -0.49773365 -1.4849259 1.8021672
C 1.0993991 -0.80911136 -0.52379423
C -0.90678084 -0.62266254 1.0710276
C -0.048738986 0.009188877 0.011957152
O 1.6642455 -0.5156136 -1.5452244
C 0.14381716 1.4895908 0.08328538
O -0.8182737 0.56921595 -1.0674152
H -1.1263337 1.4810576 -0.541061
H 1.4085053 -1.6631653 0.11020134
H 1.0126339 1.7520884 -0.53400147
H -1.9307399 -0.2056627 1.1328578
