11

O 1.198771 0.63097334 -1.9662706
C 0.16337271 0.68317705 -1.3566122
C 0.040667117 0.16086651 0.053051844
C 0.86530185 -1.0052197 0.43797973
O 1.1973166 0.2886565 0.86916345
C -1.253205 0.36630628 0.7774792
O -2.2874458 0.6049337 0.20692497
H -0.7673348 1.1021478 -1.7809962
H 0.50029224 -1.6820952 1.210426
H 1.515994 -1.4210416 -0.33016643
H -1.1737301 0.27129555 1.8790201
