10

O 0.35729975 -1.7814391 1.1327724
C 0.06664021 -0.6785107 0.44570446
N 1.148685 -0.05221653 -0.2288442
C -0.6989358 1.0515832 -0.5583445
C 0.7807243 1.0443171 -0.89057213
N -1.0422214 -0.09229235 0.29864788
H 2.0901642 -0.41828412 -0.19467838
H -0.958015 1.9924126 -0.058734454
H -1.2804914 1.0261413 -1.4864477
H -0.4638499 -2.0917115 1.5404967
