10

O 1.7606115 0.98427385 -0.73402756
C 0.71088463 0.3505311 -0.21477978
N -0.5297144 0.90676355 -0.32043874
C -0.62738526 -0.9569111 0.7247695
C -1.4795755 0.13986924 0.3531156
N 0.7239784 -0.78981036 0.39904678
H 2.538295 0.43819174 -0.5509427
H -0.72506213 1.7730696 -0.7967371
H -0.93022794 -1.7675735 1.3786553
H -1.4418043 -1.078404 -0.23866133
