11

N -0.16105438 -1.65991048 -0.90716764
C -0.81124015 -0.38837932 -0.75784485
C 0.53221158 -1.68857375 0.15623666
N 0.36595501 -0.53308606 0.99807520
C -0.01154738 0.55592620 0.05361651
N 0.23674775 1.91090246 0.08890609
N -1.07184530 -0.11998488 0.69754419
H 1.20868889 -2.47655212 0.47124773
H -1.56938377 -0.06952566 -1.46585312
H 1.10692142 2.17222404 -0.35831519
H 0.17454618 2.29695996 1.02355440
