11

N -1.4021106 -0.98061633 0.82787436
C -0.5913811 -0.20125312 0.112554654
C 1.568228 0.91043675 -0.031310752
N 0.4427294 1.2960414 0.58550537
C 0.22336623 -0.32448134 -1.0923324
N -0.77322596 1.0968295 -0.21266773
N 1.4832305 0.114799544 -1.0795438
H -2.1602688 -0.53595555 1.3221043
H 2.5138295 1.259117 0.3693533
H -0.2306289 -0.7664175 -1.9769003
H -1.073768 -1.8685005 1.1753633
