10

C 0.97081894 1.70322006 1.94391877
C 0.60415207 0.96649037 1.07209788
C 0.12593690 0.08489794 0.05498598
C -1.15282218 -0.47993818 -0.08449797
N -1.15738239 -1.23685967 -1.17348601
N 0.07270266 -1.10740567 -1.63406929
N 0.89071352 -0.33695808 -0.95480825
H 0.36584683 -1.58033799 -2.47413474
H -2.02950955 -0.37198082 0.53471068
H 1.30954320 2.35887213 2.71528292
