10

C -0.60484046 0.23033346 1.308461
C 0.08251128 -0.011514399 0.08197565
C -1.1951907 0.45085618 2.3298013
C 0.12147414 0.7615496 -1.078333
N 0.8276741 0.12239866 -2.0075655
N 1.3274151 -0.96274304 -1.4543668
N 0.86803645 -1.0809394 -0.119275205
H -1.7121044 0.6425421 3.2432282
H 0.6113965 -1.8805435 -1.0390362
H -0.3263721 1.7280604 -1.2648894
