10

C 0.38772795 2.0523653 1.500673
C 0.18099466 1.0923448 0.80714977
C -0.060180664 -0.04198064 -0.020159028
C -1.2061584 -0.72239745 -0.3746171
N -0.8694939 -1.7431507 -1.1998962
N 0.41672072 -1.738052 -1.3804137
N 0.91304475 -0.72304195 -0.6777225
H 0.5602533 2.9083302 2.1184716
H -2.228628 -0.53410757 -0.08685945
H 1.9057196 -0.5503099 -0.68662643
