11

O 1.7031527 1.5666788 1.1336837
C -0.7332537 -1.2087374 -0.9416968
C 1.8087841 0.8147579 -0.47661924
N -1.0551665 -0.6178702 0.17689255
C 0.84951705 0.8079503 0.55398864
C -0.32591042 0.24992678 0.98145247
H -1.4728299 -1.8324897 -1.4210266
H -1.9790345 -0.8309486 0.5354658
H -0.7476266 0.45046556 1.9546694
H 1.6905127 1.6658529 -1.1541145
H 0.26185542 -1.0655864 -1.3426952
