10

O -1.228382 -0.02573984 -1.5912918
C -0.5787197 -0.018197363 -0.41575104
C 0.84565413 -0.54031426 0.97817487
C 0.5414765 0.7745398 0.21460435
N -0.27950045 -1.0876507 0.2921061
H 1.3316908 1.0580404 -0.49622607
H 0.24292262 1.6412127 0.8122555
H -0.9645146 0.7389188 -2.1111484
H 0.7240283 -0.5023073 2.0625143
H -0.6346559 -2.0385025 0.25476176
