10

O 2.00857 1.1444166 0.42719072
C 0.96086496 0.5981411 0.20467849
C 0.4312282 -0.84850335 0.23248218
C -0.91475934 -0.24154 -0.2348378
N -0.2642618 1.0626504 -0.19542041
H 0.91944546 -1.515694 -0.47950098
H 0.42408684 -1.3006246 1.2257388
H -1.2354107 -0.54513836 -1.2357141
H -1.7431624 -0.34623936 0.47052404
H -0.58660114 1.9925314 -0.41514093
