10

O 0.08476661 -1.45355364 0.68843569
C 0.11113111 -0.20965243 -1.38261891
C -0.38457918 -0.30488266 0.05847014
O -0.23611049 0.67259588 -2.12844786
C 0.05561312 0.95085532 0.79288707
O 0.69791193 0.86598514 1.81125407
H -1.48719649 -0.27442000 0.02338350
H 0.57101385 -1.15073731 1.47409636
H 0.82123247 -1.01014797 -1.67203720
H -0.23378301 1.91395771 0.33457723
