11

O -2.2964678 0.019879112 1.123916
C 1.0604899 -0.9547506 0.73730475
C -0.06278631 0.18381304 -1.3310634
C -1.298743 0.08418383 0.4729299
N 0.88814694 0.27505893 -0.26693735
C 0.11650493 0.1774329 0.98403794
N -1.2629852 0.0091665415 -0.98173255
H 0.31988034 0.90132195 1.7678646
H 0.54911953 -1.77066 0.21320975
H 0.30163437 0.18376143 -2.3530874
H 1.6852063 0.8907931 -0.3664419
