11

O -1.38745189 1.22618532 1.76317709
C 0.60402371 0.60371666 0.53298029
C 1.30678300 -0.71352305 0.60250223
C -0.74390379 -0.49625378 -1.00488732
N 0.61773354 -0.15888058 -0.72724148
C -0.86997013 0.67197759 0.84206950
N -1.58830740 -0.12583208 -0.14303981
H 1.16877061 1.53053538 0.57574859
H 1.23734106 0.07061208 -1.49389198
H -0.95900162 -1.10950811 -1.87378751
H 0.61398294 -1.49902971 0.92637063
