10

N 0.16793674 0.45939532 -0.051335625
C -0.15546447 1.3489524 -1.0184362
O -0.7654827 -1.4126548 -1.0178648
N 0.16943334 -1.5713375 1.0613844
C -0.21097204 -0.90152514 -0.07809608
O 0.31726304 2.5565763 -0.84110934
H -0.20508678 -2.507011 1.1239227
H 0.7641758 0.82302195 0.6901639
H 0.2661364 -1.0714658 1.9320465
H -0.34793925 2.2760484 -1.8006756
