10

N 0.11928390 -0.35808504 -0.18760025
C 1.04156871 -1.32377681 0.03201831
O 0.07288525 0.51417327 1.95659200
N -1.10650812 1.54435668 0.29671098
C -0.26220401 0.57801891 0.80282072
O 1.08678955 -2.02115792 -1.11388750
H -1.28286685 2.30095339 0.94146311
H 1.74100165 -2.71543566 -0.97847941
H -0.37407344 -0.32933822 -1.07788196
H -1.03587664 1.81029121 -0.67175630
