10

N 0.8046726 -0.15650763 1.680961
C -0.37991062 0.13906768 1.3632804
O -0.7954371 0.20799085 0.08545765
C 0.21559164 -0.085809544 -0.8713152
C -0.38536042 0.039266735 -2.2026608
N -0.8131682 0.12609574 -3.271868
H 0.91702986 -0.15465668 2.6917062
H -1.2171324 0.3751564 2.0246234
H 0.5995753 -1.1007568 -0.72880197
H 1.0541396 0.6101531 -0.771383
