10

N 2.07498786 -0.02204340 2.64329409
C 1.30379868 0.05253382 1.78764123
O 0.74161597 -0.69671551 -0.35413073
C 0.31489274 0.16397676 0.71074439
C 0.04876672 -0.83457166 -1.49377990
N -1.05849501 -0.08853182 -1.54598621
H -0.66200840 -0.14451987 1.09560931
H -1.42800588 0.52749420 -0.83193391
H -1.60184839 -0.16481346 -2.39063169
H 0.26629598 1.20719078 0.37917311
