11

O 1.4740322 -0.58840185 -1.6488189
C -0.720201 -0.1828196 -0.9513689
C 0.671133 -0.6194156 -0.73474276
O -1.3856045 0.42011914 -0.007874964
C -0.66018075 1.2327207 0.76575285
N 0.8954864 -1.1371049 0.52273494
H -1.2808754 -0.40968508 -1.8508494
H 0.004820225 1.9113567 0.23704544
H 1.8549132 -1.3577926 0.70926005
H -1.168402 1.5165489 1.6768726
H 0.31487885 -0.7855259 1.2819887
