11

O 0.35720626 -1.8406546 1.3345301
C 0.2689053 1.3302828 -1.1681525
C 0.08446565 -1.9083557 0.16487722
O -0.16160311 -0.8946181 -0.66281015
C -0.10463798 0.44269228 -0.24431373
N -0.5535473 0.69669384 1.0204202
H 0.52663547 1.0118971 -2.1709783
H -0.31880417 -0.007233452 1.7121773
H 0.2796995 2.3874962 -0.9353605
H -0.37084714 1.6340294 1.3418685
H -0.0074723754 -2.8522294 -0.39225844
