11

O -1.875699 -0.087802686 -0.09857172
C -0.62450725 0.49751544 0.08410315
C 0.27156478 0.07437172 1.2646695
O 1.365506 -0.18401352 0.337878
C 0.5420637 0.0014282997 -0.743495
N 0.7016341 -0.26315707 -1.9574608
H -1.7521287 -0.9449797 -0.5268769
H -0.74877524 1.5822829 0.024977958
H 0.5477138 0.8378933 1.9937197
H -0.048341848 -0.84932786 1.7543368
H 1.6209697 -0.6642108 -2.1332808
