11

O -0.79884960 -0.64962565 -0.45343166
C 0.07350609 0.43322149 -0.27116549
C -0.88007211 -1.65053275 0.42113568
O -0.27020106 -1.76530545 1.45164199
C 0.55248757 0.99338029 -1.38365300
N 0.23553661 0.86516062 1.01443281
H -1.61693975 -2.38146579 0.05711193
H 1.18491896 1.86999472 -1.32376577
H 0.96919241 1.54596988 1.13085539
H 0.26572932 0.13308707 1.71607557
H 0.28469159 0.60611559 -2.35923756
