11

N 0.8371581 -0.59491724 0.5201182
C 0.6272478 1.538668 -0.69265044
C -1.2031106 -0.1677105 -0.34035343
C 0.14166202 0.38509887 -0.21741907
N -1.3349628 -1.2584096 0.32044286
N -0.16897045 -1.5080398 1.0047387
H 1.3547845 -0.22238962 1.3081446
H -0.024446119 2.2161574 -1.2315388
H 1.6689321 1.8137771 -0.57315606
H -2.0231376 0.25805584 -0.9031797
H 0.12484301 -2.4602907 0.8048533
