11

N 0.10216165 0.71443474 -1.7191443
C -0.00600013 0.16776597 -0.43804178
C 0.8892059 -0.50487727 0.36870724
C 0.13139255 -0.8610239 1.5059526
N -1.11797 -0.44292948 1.4302607
N -1.1814148 0.1803417 0.23529762
H 1.0473946 0.633953 -2.0723472
H -0.19055267 1.682637 -1.7699796
H 1.9324217 -0.7004391 0.16733971
H 0.46025276 -1.4018381 2.3822281
H -2.0668917 0.5319754 -0.090272956
