11

N 1.4911646 0.51896113 -0.7357194
C 0.56105036 -1.2745874 -0.06802519
C -1.6125678 0.28595385 0.63670236
C -0.29096767 -0.18157327 0.2908831
N 1.634164 -0.8082852 -0.673099
N 0.42211175 0.9101847 -0.0017372739
H 2.3059134 1.1022527 -0.80617404
H -2.1970096 0.4635577 -0.26875225
H -2.169627 -0.2542819 1.4017094
H -0.5473885 1.5769205 0.19702433
H 0.40315616 -2.3391027 0.027187826
