11

N 0.01492906 1.37507078 0.81098930
C -0.21783471 -0.69032050 -1.61042482
C 0.03114183 0.09329933 1.57001587
O 0.88044656 -0.30275597 -0.79110836
C -0.09018293 0.16168757 0.11437356
O -1.17353435 -0.17017437 -0.69597391
H -0.22731089 -0.17152260 -2.57094093
H 0.97933603 -0.25737023 1.97476910
H -0.28613423 -1.77575182 -1.72550726
H -0.84139193 -0.05855833 2.19921267
H 0.93053525 1.79639581 0.72459490
