11

N -1.6445317 1.4187766 -0.22561999
C 0.14542978 -1.5214939 0.0049736477
O -1.0620133 -0.7785894 -0.087044515
C 0.748587 0.6288885 0.15738288
C -0.7547273 0.5407819 -0.06492414
O 1.1007149 -0.67170966 0.5769155
H 1.2558361 0.9075133 -0.77944875
H -0.012545305 -2.379698 0.65938723
H 1.016537 1.3428603 0.9405819
H 0.45148265 -1.8403027 -1.0014501
H -1.2447698 2.3529727 -0.18075374
