10

C -0.93147606 0.37739846 2.3671615
C -0.47337994 0.20983556 1.2676309
C 0.06754994 0.008853784 -0.0350396
C 1.3404063 0.119589925 -0.5505162
N 1.3040886 -0.20014727 -1.8693639
N 0.087750435 -0.5004897 -2.2027597
N -0.6664859 -0.3783234 -1.1096008
H -1.3292772 0.5294092 3.347616
H 2.2555838 0.40410832 -0.05348373
H -1.6547599 -0.57023495 -1.1616448
