10

O 1.7281442 0.2024256 -1.1859002
C 0.080889404 0.0550428 0.34261262
C -1.217752 -0.33691224 0.94261163
O -2.064408 -0.89597327 0.28122616
C 0.5176554 -0.17987114 -1.0210897
O 0.95789593 0.7273453 1.0073216
H -1.3294544 -0.09610005 2.0138266
H -0.011048226 -0.9109335 -1.647668
H 1.7140406 0.70071936 0.2244181
H -0.3759626 0.7342572 -0.9573588
