11

N -2.093565 -0.33599764 0.054875474
C -0.73411417 -0.06705694 0.034515034
N -0.095194325 0.261017 1.139663
N 1.1877273 0.4723251 0.790844
C 0.07152352 -0.10880263 -1.1742958
C 1.365887 0.10289798 -0.55560946
H 2.2605338 0.43625894 -1.0760878
H -2.6017964 0.12675524 0.7956921
H 1.8715049 0.4013999 1.5287492
H -2.5209258 -0.24310344 -0.85381764
H 1.2884187 -1.0456935 -0.68452805
