11

N 1.4736146 0.36982605 1.3589045
C 0.43640217 0.20055091 0.44154784
N -0.27833483 1.2335315 0.024194248
N -1.213116 0.68561167 -0.77954775
C -1.09892 -0.65323997 -0.8904047
C -0.030500796 -1.0230376 -0.1051093
H 2.284515 -0.19704337 1.1572591
H 1.7324924 1.3442221 1.4417303
H -1.888796 1.2903373 -1.2161857
H -1.7744305 -1.2349101 -1.5009857
H 0.35707352 -2.0158484 0.06859739
