11

O -2.0145242 0.9880914 1.3770096
C -1.0822859 0.6131736 0.7234334
N -0.9745434 -0.55006665 -0.015228042
C 0.40810934 -0.8073013 -0.35811755
C 0.94186944 0.62988967 -0.32432407
O 0.07866309 1.3114703 0.5866616
H -1.6077828 -1.2939471 0.23670004
H 0.9071486 -1.4428309 0.38388178
H 0.5129529 -1.2636722 -1.3441209
H 0.86339986 1.1093659 -1.3050685
H 1.9669933 0.7058276 0.03917273
