11

N -0.11400053 -2.0480554 -0.6786573
C -0.6808944 -0.2163661 0.87957454
O 0.6114781 0.1609025 -1.0021429
C -0.043865792 -0.8362184 -0.3461595
C 0.5026158 1.3431582 -0.21114363
O -0.59917635 1.1759886 0.63108027
H 0.32743645 2.195564 -0.8693765
H -0.121184416 -0.50251776 1.7811599
H 1.4326272 1.4668887 0.3597164
H -1.7260405 -0.5105977 0.9876273
H 0.41100454 -2.2287467 -1.5316784
