11

N -0.47517204 -0.95267564 -0.33149666
C 0.82865447 -0.16657256 -0.55790406
O 1.1161647 0.37246212 -1.7139796
C -1.1303686 -0.5362873 0.7411519
C 0.52078044 1.1052676 0.09799555
O -0.7400767 0.4731435 1.3767503
H 1.5944654 -0.80095917 -0.062035892
H 1.2877215 1.6310447 0.6623523
H -0.7584928 -1.7558835 -0.86950916
H -0.21789764 1.7031573 -0.4204368
H -2.025779 -1.0726974 1.0771118
