11

N 1.6170626 -0.069657825 -0.29111195
C 0.47743738 0.17950672 -0.99139273
O 0.37372687 0.14384682 -2.20064
C -0.7172369 0.46803358 -0.115281574
C -1.159891 -0.52031344 0.8741096
O -0.46759123 0.65584296 1.2724104
H 1.6587529 0.18749343 0.6826536
H 2.4722955 -0.17971732 -0.8145739
H -1.4470499 1.1397738 -0.5622105
H -2.2116084 -0.5602311 1.1559639
H -0.59589785 -1.4445778 0.990073
