10

C -0.92054094 -0.19183008 -0.10704438
C -0.01518990 -0.69807819 -1.18756546
N 1.19417997 -0.49850771 -0.84185865
C 1.03532175 0.14210498 0.46263483
C -0.21103213 0.93672949 0.56168999
N -0.16090800 -0.38176821 1.17010617
H -1.99499359 -0.32178842 -0.06111856
H -0.31350704 -1.16095567 -2.12238324
H 1.91935999 0.33439578 1.06218285
H -0.53268952 1.83969761 1.06335625
