10

C -0.25977984 0.92284256 0.067146376
C 0.8377736 -0.15483549 -0.564267
N 0.09029237 -1.3299563 -0.14043185
C -1.1879103 -0.98820037 -0.008052629
N -1.4851142 0.2990552 0.03559744
C 0.9702481 0.3452685 0.7066451
H -1.9462373 -1.7527437 0.14352328
H -0.25517213 2.0050883 -0.045258727
H 1.4570369 -0.14239609 -1.4628946
H 1.7788628 0.7958777 1.2679927
