9

O -1.8206865 -0.7907114 0.65850335
C -0.5216747 -0.629401 0.55311257
N 0.97137344 1.1478798 -0.45245796
N 0.5561307 -1.2425356 0.33789518
N 0.42599002 0.86595297 -1.5308108
C 0.6006531 0.25201738 0.61968255
H -2.03472 -1.7187302 0.46927717
H 1.0464636 0.5668286 1.5602608
H 0.77647036 1.5486997 -2.215463
