11

N 0.28271067 -1.2605733 -1.7802129
C 0.08039971 0.482026 1.2113378
N -1.1620591 0.271147 -0.7013063
N 0.50406474 0.9105659 2.315977
C -0.09101844 -0.42318514 -0.77267486
N -1.1281614 0.75040746 0.60783136
O 0.71478283 -0.38068387 0.3222323
H -0.26188704 -1.1343709 -2.6185932
H 1.276128 -1.3502758 -1.9269848
H 1.422188 0.53942376 2.5364416
H -1.6371479 1.5955185 0.8059522
