11

N 1.63900139 -0.46666720 -1.39069203
C 0.48794680 -0.20947411 -0.70881939
N -0.70210449 -0.20098032 -1.17575030
N -1.48122269 -0.10371146 -0.02327703
C -0.70743168 0.14688060 1.08817233
N -1.09462549 0.45072806 2.24624139
O 0.59692657 -0.02657269 0.63453992
H 2.46308440 0.00225811 -1.04796363
H 1.51807162 -0.43873058 -2.39068742
H -0.31553617 0.56044865 2.88677451
H -2.40411040 0.28582084 -0.11853797
