11

C 0.25047338 -0.02728931 0.23840399
C -0.8733144 0.31075418 0.9229945
C -1.2459506 0.3611479 -1.2951483
N -1.8332583 0.589371 -0.1547049
C 1.6305783 -0.41559815 0.6357602
O 0.025436264 0.06304757 -1.1410167
H 1.6747472 -0.42927697 1.7263727
H 1.8959591 -1.4106773 0.2610966
H -1.6441828 0.4447823 -2.2965796
H -2.2553298 0.2172751 0.8385281
H 2.3748417 0.29646358 0.26429352
