11

C -1.04331952 0.75811681 -0.07852255
C 0.22766108 -0.06128200 -0.05318647
C 0.50649619 -0.73578557 -1.32535684
O 0.27505530 -1.07569378 1.00770077
C 1.34155326 0.33896767 0.84472488
N 0.76353746 -1.19967653 -2.35160979
H -0.93093025 1.56386755 -0.80771713
H -1.91018268 0.15074488 -0.35614633
H -1.18853002 1.21600239 0.90369464
H -0.27636874 -0.75894572 1.74198315
H 2.23502798 -0.19631571 0.47443595
