12

N 0.41426774 0.28971323 1.60567769
C -0.81218956 0.09372652 1.34103713
C 0.10281181 -0.38508505 -0.69244928
C 1.16431366 -0.14838245 0.42833977
N -0.05045504 1.61023220 -2.40297873
C 0.03024202 0.73011620 -1.65798741
N -1.11993289 -0.48232586 0.10907579
H -1.61871579 0.30142353 2.03985964
H 1.90778462 0.60024409 0.14603876
H 1.68851367 -1.08221917 0.65812241
H 0.28519062 -1.30976830 -1.24629180
H -1.99183087 -0.21767474 -0.32844384
