12

N 1.3282076 -2.656533 0.078940295
C 0.5189593 1.3544682 -0.32548904
C -1.1181433 -0.17186971 -0.55057675
C -0.26712206 -0.6069062 0.62782466
N -0.35158712 0.9235031 -1.1892447
C 0.63118297 -1.7680244 0.32538658
N 0.51590556 0.62181395 0.84013885
H 1.3423517 0.58929473 1.422248
H 1.0911738 2.2662516 -0.42696607
H -1.4368088 -0.91021264 -1.2804822
H -1.4108189 1.2221062 -1.0490268
H -0.8433009 -0.86389154 1.5272472
