10

N -0.544898 1.5117263 1.8245513
C -0.7833297 1.0161909 0.75512165
C 1.1980252 -0.6213642 0.6080563
C -0.6666138 0.04135631 -0.29841855
C 0.67360765 -0.5113778 -0.7218075
H 1.2971754 0.12151079 -1.3539242
H -1.5914872 -0.28942612 -0.7593391
H -1.1783389 1.6221745 -0.17325008
H 0.52930725 -1.4957912 -1.1885765
H 1.0665519 -1.3949995 1.3075867
