12

N 0.7515043 1.2830434 -0.5084723
C -0.46272466 0.53814566 -0.31315127
N -0.7872432 -0.46184486 -1.2762074
C -0.06841529 -1.3682854 -0.6867931
C 1.4916234 0.40136248 0.07583264
C 0.7097078 -0.7970748 0.40580705
N -1.4880636 1.1604263 0.30546638
H -1.251847 1.8372796 1.0132668
H -0.055734545 -2.4081154 -1.0156958
H 0.9375921 -1.3754442 1.2921505
H 2.5535696 0.5648615 0.26678306
H -2.3299687 0.62564546 0.44101363
