11

C 0.31873184 0.7307112 0.58050346
C -0.7808451 0.053794865 -0.22939311
O -1.226704 -2.3001194 -0.4200019
C -0.45054355 -1.3853563 -0.5507046
O 1.4706931 0.7935298 -0.24058454
H 0.5779429 -1.555829 -0.93018675
H -0.8852743 0.5958779 -1.1783227
H 0.5199201 0.1552081 1.4988334
H 2.2144914 1.092449 0.29342118
H -1.740724 0.08559559 0.2950125
H -0.017688107 1.7341386 0.88142294
