10

O -0.28981352 0.4844362 2.1182027
C 0.051277798 -1.0073377 -0.9454246
N -0.48298958 -1.0519006 0.30017707
C 0.6627958 0.23110723 -1.1360296
C -0.20165402 0.24234907 0.7917342
N 0.50802684 1.011196 -0.060652114
H -1.3642566 -0.063181736 0.34770563
H -0.09516953 -1.8218522 -1.6407079
H 0.038504887 1.3856126 2.2467313
H 1.1732781 0.589571 -2.0217366
