10

O 1.2386736 0.5103516 -1.7554607
C 0.47025302 0.08459242 -0.7389804
N -0.06475885 -1.0920695 -0.60779774
C -0.7493904 -1.0231245 0.5930472
C -0.6112433 0.20378457 1.165473
N 0.18973756 0.92357177 0.28511477
H 1.3067703 -0.24321806 -2.35945
H -1.3020072 -1.8735123 0.96635413
H -0.98571515 0.6347768 2.0805304
H 0.50768065 1.874847 0.3711695
