11

O 0.09627261 -0.66380383 -1.32481900
C 0.77695500 0.01859383 -0.25196974
C -0.22460053 0.62584822 0.70123385
O -0.95202031 -0.33447547 1.29672856
C -0.04611176 -1.94494372 -1.16887336
N -0.40194816 1.85018504 0.98112495
H 1.38080058 0.79377751 -0.72677976
H 1.40518546 -0.70971883 0.27034295
H -1.59246660 0.12737208 1.86010120
H 0.21051768 2.44906382 0.43449201
H -0.65258411 -2.21189855 -2.07158190
