9

O 0.57657176 1.663178 0.6803929
C 0.11377825 0.48921174 0.2438734
N -0.9051009 -1.0403947 -0.9861429
N -0.26903024 -1.6638253 -0.020737527
N 0.4168643 -0.68561995 0.7941398
C -0.75566757 0.27311203 -0.82400537
H 0.9625003 -1.5404048 0.095037095
H 1.1071043 1.5062816 1.4735373
H -1.2470201 0.99846137 -1.4560949
