9

O 0.83607006 -1.7219793 -0.62486047
C 0.27385953 -0.573622 -0.21557662
N -0.6576956 0.07072834 -0.8961787
N -0.90487665 1.1235045 -0.1241961
N -0.21436581 1.2102296 0.99043244
C 0.559469 0.13015178 0.96791416
H 0.44050622 -1.9586501 -1.4739652
H -1.5901566 1.8149027 -0.38241875
H 1.2571898 -0.0952657 1.7588493
