9

O 0.17288680 -0.75087443 1.99617167
C 1.45183932 1.67707755 -3.15799486
C 0.38181025 0.50467872 -1.21493246
C -0.12974675 -0.05633923 -0.28686431
C -0.70928601 -0.70304741 0.90112097
N 0.94474160 1.12433005 -2.24549544
H -1.64960663 -0.19272554 1.15895752
H 0.49399521 0.14069500 2.17785169
H -0.95663366 -1.74379471 0.67118512
