9

O 0.51366585 1.4988647 1.3281136
C -0.03835692 -2.8847013 -0.71267873
C -0.29400852 -0.26775485 -0.08672192
C -0.39638096 1.1416221 0.31724966
C -0.15542431 -1.4287703 -0.3943007
N 0.6495095 -2.4505942 -1.6032323
H -0.28685117 1.7662715 -0.5838943
H -1.3972918 1.3243517 0.71803784
H 1.4051384 1.3007112 1.017427
