11

N 1.3475287 0.56608963 1.838092
C 0.6403566 0.26595294 0.8358651
C -0.7679348 -0.17708111 0.854443
C -1.1571376 -0.39448422 -0.39718023
C -0.013010811 -0.10623949 -1.3240974
O 1.0550605 0.29720592 -0.4669133
H 2.2858524 0.84265983 1.551871
H -1.3315123 -0.28494617 1.7706667
H -2.1284926 -0.7268494 -0.7401103
H -0.23190165 0.7043508 -2.0278933
H 0.30119166 -0.9866589 -1.894743
