11

N -1.7775849 -1.1927849 -0.9604521
C -0.31717733 0.76344734 -0.8160071
C 0.9319907 -0.044487532 0.94584835
C -0.81977785 -0.56832474 -0.42544952
C 0.70068693 1.0785211 -0.022025004
O -0.06282026 -1.0150646 0.6207326
H 1.297361 1.9825412 -0.032102603
H 1.9221244 -0.5008254 0.8344407
H 0.8039918 0.26048183 1.9896008
H -0.75283134 1.3295333 -1.6278228
H -1.9259633 -2.0930376 -0.5067636
