11

C -0.5326835 -1.0788537 -1.4115586
C -0.017099667 -0.25001723 -0.28653562
N 1.1604053 -0.26113465 0.24893712
C 1.0919223 0.6929566 1.2543582
C -0.14298078 1.235001 1.2671114
O -0.8685712 0.6378005 0.27905834
H -1.4266131 -1.6323384 -1.109448
H 0.24058731 -1.7862457 -1.7123666
H -0.7995759 -0.457481 -2.2718663
H 1.9375844 0.912218 1.8903306
H -0.64297515 1.9880946 1.8519794
