11

C 0.20987317 -1.89114822 -1.33910269
C -0.85299918 -1.14031438 -0.71514734
N -0.51861307 -0.23239098 0.16760722
C 0.37480248 1.86021628 1.19585698
C -0.08043256 0.46428514 1.01944010
O 1.39730880 -1.74796469 -1.10729923
H -1.90580460 -1.28523797 -0.92451580
H -0.14692243 -2.64017406 -2.07771983
H 0.19557902 2.47481072 0.30839429
H 1.44815920 1.83645410 1.40697643
H -0.12095081 2.30146409 2.06550980
