10

O -1.9643128 0.99001926 -0.18864192
C -0.80572087 0.35065952 0.040139258
N -0.47827035 -0.30054507 1.1181768
C 0.8013724 -0.7676988 0.8566125
C 1.2160639 -0.38382432 -0.37975812
N 0.15712476 0.3484394 -0.9083188
H -2.4897807 0.86611336 0.613556
H 1.3365235 -1.3554542 1.5889901
H 2.1288583 -0.5439484 -0.9327441
H 0.09814177 0.7962391 -1.8080117
