10

O -1.145157 1.701426 0.07488076
C 1.3655094 -0.69719225 -0.26038826
N -0.87505287 -0.6468015 0.005559095
C -0.25589722 0.49700838 -0.07177307
C 0.22717187 -1.4714787 -0.13399656
N 1.0270249 0.64313126 -0.20745341
H 2.3962111 -0.998805 -0.38845387
H -2.011894 1.2899367 0.28277734
H 0.11647505 -2.547869 -0.13802953
H -0.84439147 2.230644 0.8368775
