12

C 1.7320831 0.96353006 -0.483187
N 0.65400076 -1.0356228 0.253077
C -0.7463475 0.44284895 -0.3506626
N 0.7043779 0.21482517 -0.21184483
C -0.8045754 -1.0254236 0.15866847
O -1.4800386 -1.2803892 1.3462124
H 1.5605876 1.9642266 -0.8523982
H 2.7162683 0.5448804 -0.31380317
H -1.1259766 1.1883192 0.35163558
H -1.0607638 0.6511734 -1.3783522
H -1.1943574 -1.7294639 -0.5798294
H -0.95525867 -0.89890426 2.0604837
