9

O -0.52262336 -1.0855504 1.2059236
C -0.9972753 -0.8343869 -1.2369214
C 0.557891 2.0019271 0.0023136537
C 0.18316564 -0.6241041 0.13733292
C 0.3701914 0.81722844 0.03414022
N -0.08806195 -1.5746869 -1.4757054
H 0.724119 3.0569632 -0.024312302
H 1.1450981 -1.1325287 0.12908001
H -1.3725045 -0.62486184 1.2281488
