10

O -0.38481938 -0.84021286 -1.90469114
C 0.35433237 -0.16241250 -0.93706493
C -0.39463973 -0.06039550 0.36855282
O -1.49955010 -0.54158109 0.50904107
C 0.25486572 0.65926702 1.54131991
O 1.34138881 1.16864523 1.45850090
H -1.22596626 -1.08510739 -1.49269158
H -0.36453694 0.66867344 2.46159746
H 1.31323919 -0.66549907 -0.73795092
H 0.60568615 0.85862284 -1.26661358
