10

O -0.5656442 -1.8773935 -0.7881962
C 0.21214926 -0.9913032 -0.046294436
C -0.31645527 0.41879278 -0.14508985
O -1.291622 0.69182014 -0.813086
C 0.40092754 1.5253085 0.6109119
O 1.374577 1.3143274 1.2857263
H -1.2606095 -1.3509235 -1.2111794
H 0.23964469 -1.2723712 1.0185097
H 1.258802 -0.9865089 -0.3895199
H -0.051769692 2.5282516 0.4782179
