11

N 1.6184225 -0.06542573 -0.29396772
C 0.47781575 0.17829445 -0.99109733
O 0.36724767 0.13893734 -2.1991959
C -0.7169917 0.46736938 -0.11382176
C -1.1587583 -0.5200586 0.87424356
O -0.4680297 0.65852994 1.2714875
H 1.6569037 0.18602473 0.68173313
H 2.4740417 -0.17779835 -0.8169562
H -1.4483708 1.1380831 -0.5614773
H -2.2086346 -0.5604967 1.1611643
H -0.59364617 -1.4434595 0.98788744
