11

N 1.7036803 -1.3194584 0.0847845
C 0.69042504 -0.58463293 -0.01558602
O -0.03704384 -0.3266087 -1.137228
C -1.0498421 0.619982 -0.79226667
C 0.054521795 0.18808343 1.1143548
O -1.2072759 0.56618506 0.59044844
H -0.086327076 -0.4306899 2.0015826
H -0.725719 1.6143636 -1.1285416
H 1.9694875 -1.7193512 -0.8112673
H -1.9851251 0.33121106 -1.2730161
H 0.6732184 1.060916 1.3667353
