10

O 1.0251778 0.38986617 -0.82228696
C -1.0354781 -0.46040916 -0.24061275
O -0.2701117 -0.27821702 -2.5415523
C 0.91630423 0.43246177 0.5996771
C -0.4403296 -0.1329092 0.8982219
C -0.11105999 -0.13389353 -1.3605528
H 1.7297978 -0.15891902 1.0361047
H -2.0114818 -0.8931488 -0.41047058
H 1.0247611 1.4700168 0.9353958
H -0.8275797 -0.234848 1.906076
