9

N -1.0919908 -0.8890074 -0.16905549
C -0.86631364 0.43095016 -0.33527756
O -1.6564451 1.2405183 -0.7559407
C 1.7105455 0.105618134 0.46230277
C 1.4233854 1.7752395 0.23828335
C 0.5029652 0.8924813 0.047084592
N 2.3916426 -0.7937132 0.7420983
H -0.40551907 -1.5296562 0.1918004
H -2.0082705 -1.2324306 -0.42129567
