9

O -1.31542397 -0.65325664 0.86734484
C -0.60881661 0.29800973 0.13926187
C 0.85244878 0.19648895 0.31667051
C 2.03110061 0.08571166 0.50400201
C -1.19993844 0.12081540 -2.39895287
N -0.92372174 0.21907558 -1.26114918
H -0.96236351 1.26618156 0.50177849
H -0.95644246 -1.52756292 0.66297993
H 3.08315720 -0.00546337 0.66806460
