10

O 0.11856770 -2.39084479 0.20600862
C 0.11026970 -1.19723720 0.02836328
C 0.91332587 -0.33275336 0.95768212
O 0.17366134 -0.06057981 2.00619928
C -0.40074272 0.78783829 -1.16236274
O -0.43254540 -0.64012088 -1.06178667
H -0.76834404 1.01889871 -2.16272709
H -1.06296806 1.23898230 -0.41522494
H 0.61735810 1.16695384 -1.04352064
H 0.73141737 0.40886289 2.64736875
