10

O -1.6720562 -1.692411 0.3355737
C 0.5528103 -1.0693974 0.6425216
C 0.046209093 1.0322919 -1.031799
O -1.0204344 0.10078245 -0.82024246
C -0.8260201 -0.87030697 0.0812242
O 0.58350617 -0.5521089 1.8475281
H 0.9786225 0.5138595 -1.2688948
H 1.4415638 -0.77536285 2.24308
H -0.2638439 1.6445045 -1.8793315
H 0.17964272 1.6681488 -0.14965974
