10

N 0.6108302 -0.13972445 1.2546276
C 0.51164377 1.0824183 0.8405864
O -0.13335393 1.2832769 -0.22450787
C -0.5483469 -0.6730552 -0.3922411
C -0.42786443 -0.5092308 -1.8312727
N -0.33334014 -0.49247116 -2.985749
H 0.9483397 1.9428703 1.3615756
H 1.1156883 -0.3645542 2.1055841
H -0.20485067 -1.6667128 -0.12394004
H -1.5387458 -0.46281713 -0.0046629393
