10

N -0.12812088 0.33431375 1.5476575
C 1.2843949 0.4184838 -1.1055069
O -0.93421346 -0.25500387 -0.51658523
C -1.0842867 0.25434655 0.72756624
C 0.3714939 -0.7065382 -0.8321005
N 2.0051231 1.2841804 -1.3518599
H 0.26299512 -1.3162762 -1.7334011
H -0.43996587 0.7435997 2.4232342
H -2.1277199 0.5477433 0.86109084
H 0.7902996 -1.3048494 -0.020095423
