12

O -0.66599065 1.4879946 -0.81592107
C 0.18591546 0.41695645 -1.1347096
C 0.48308814 -0.40118757 0.12133374
O 1.0383071 0.44962382 1.0893915
C -0.7914608 -1.0127057 0.6690133
O -1.1315151 -0.8246456 1.8131509
H -0.2603084 1.9204739 -0.04907853
H 1.1377128 0.75731057 -1.5664198
H -0.32541326 -0.20071493 -1.8823601
H 1.1715809 -1.2262101 -0.1298658
H 0.5318182 0.28764796 1.9042506
H -1.3737341 -1.6545433 -0.01878555
