10

O -1.308497 -1.5721722 0.5855949
C 0.92975855 0.56894386 -0.88909984
C 0.037914325 0.36318725 0.33056808
O 0.5228771 1.0573682 -1.9134722
C -1.0955621 -0.57374376 -0.058659285
O 0.75618386 -0.14240381 1.4083954
H 0.30112934 -0.95881224 1.6756129
H 1.9697471 0.21074796 -0.7539826
H -1.685591 -0.28917688 -0.9474575
H -0.42796028 1.3360616 0.56250006
