11

C 0.08344812 0.20718361 0.040953495
N -1.08527 0.83622867 0.25277022
C -0.18728957 -1.0457046 -0.4929436
C 1.39375 0.8565874 0.35270464
N -1.5077379 -1.1383784 -0.7062195
N -2.0484583 0.08391006 -0.22259825
H 1.2865335 1.5101247 1.2210902
H 1.7252815 1.467101 -0.49229816
H -2.3064692 -1.0300933 0.23560683
H 0.4846946 -1.853149 -0.7484935
H 2.1615174 0.106190115 0.55942756
