11

C 0.12138408 -0.11833946 0.09427636
N -1.52714277 1.13281933 0.33365364
C -0.21069393 0.49334500 -1.12810705
C 1.20637910 -1.09292290 0.42400430
N -1.26344211 1.28440814 -0.94557589
N -0.74136622 0.31495270 1.01038026
H 1.23506796 -1.25541934 1.50221838
H -2.29168351 1.61947719 0.77663194
H 1.03582462 -2.05679178 -0.06677035
H 0.25138399 0.39955658 -2.10090986
H 2.18428836 -0.72108567 0.10019807
