10

O 0.9558896 2.0919518 -1.1628681
C 0.67211324 1.1149257 -0.5491458
O 1.1287752 0.75521976 0.70626813
C 0.4994383 -0.539055 0.5674241
C -0.9657627 -0.36908102 0.50819594
C -0.1212314 -0.14903814 -0.7431528
H 1.0768001 -1.4079522 0.8491209
H -1.5570047 -1.2785355 0.477229
H -1.4267179 0.47492346 1.0142013
H -0.2623 -0.69335884 -1.6672726
