10

O 0.77920535 2.30428520 -1.44182044
C -0.43879093 -0.69189624 0.22972132
O 1.45064182 0.55313052 1.02385731
C 0.69824406 -0.38338629 1.16453347
C 0.20659005 1.34149323 -1.12733309
C -0.54551212 0.27699827 -0.91176720
H 0.81507198 -1.08290720 2.01675149
H -1.35713974 -0.71819572 0.83381153
H -0.29685083 -1.72437637 -0.12093254
H -1.31145990 0.12485463 -1.66682179
