10

N -0.310191 0.4282347 -0.068320304
C 0.0582046 1.512762 -0.7107355
O -0.93876535 2.2982435 -0.7593963
N -0.07472317 -1.6584461 0.8552045
C 0.5453806 -0.6639873 0.16694301
O 1.7038614 -0.6895232 -0.19520669
H 1.0381626 1.7212822 -1.1364326
H -1.0737131 -1.655736 0.9834218
H -1.3781053 1.2297298 -0.09999768
H 0.42988884 -2.5225596 0.96451974
