10

N -0.68228396 1.65022399 0.84487903
C -0.47038361 0.78353935 -0.18089279
O 1.15505819 -2.33818976 -0.34780264
N 0.25967824 -0.34757447 0.27559261
C 0.48129236 -1.22583476 -0.61569675
O -0.85904863 0.96175424 -1.31695391
H -0.29436575 1.45915652 1.75240118
H 1.40729393 -2.29460669 0.58874967
H 0.15593349 -1.16482602 -1.65257100
H -1.15317426 2.51635766 0.65229501
