10

C -0.80608774 0.15722135 2.25572116
C -0.19926264 0.19299447 1.22420905
C 0.50747038 0.24294331 -0.05310436
C -0.37409651 0.28632357 -1.26274766
N 0.95368924 -1.44631438 -1.42703544
N -0.11572398 -0.67857255 -2.05220094
N 1.28556220 -0.97923733 -0.33278798
H -1.33813999 0.12271420 3.18085284
H 1.22390162 1.07515034 -0.06269512
H -1.13731254 1.02677699 -1.47021171
