10

C -1.8710179 -1.0278629 -1.4001833
C 0.6397422 1.2201473 0.11475882
C 0.051851068 -0.05230408 0.10528481
C -0.9859624 -0.5931555 -0.7138817
N 1.9193704 -0.07712491 1.2783318
N 1.7675061 1.1585127 0.81653744
N 0.9722181 -0.88931185 0.8533968
H -0.135285 -0.44395804 1.3132586
H 0.2894446 2.1312094 -0.35144314
H -2.6478674 -1.4261522 -2.0160599
