10

O 1.337099 0.6968412 1.4825073
C -0.5983865 -0.26908466 -0.8677365
C 0.6643689 0.014315959 0.6257956
C -0.74987906 0.08109105 0.63172895
N 0.87947 -0.44178572 -0.6377088
H 0.11931714 1.0824307 1.4608797
H -0.7946307 0.55358166 -1.5619724
H 1.5967194 -0.039123826 -1.2315594
H -1.07552 -1.1898456 -1.2109377
H -1.378558 -0.48842093 1.309003
