11

N 0.18542746 -1.02073661 -1.61989646
C 0.95283396 -0.36107400 0.43875364
O 0.31380202 0.30910817 1.41110479
C -0.79275275 1.12486757 1.02378691
C 0.62836803 0.01745629 -0.95533886
O 1.82132881 -1.16075887 0.70782385
H 0.09811384 -1.95865453 -1.22175824
H -1.60318235 0.51539257 0.60793455
H -1.13349360 1.61044064 1.93777764
H -0.48985646 1.87269736 0.28757272
H 0.01941095 -0.94873845 -2.61776092
