12

N -0.9283773 2.0781467 1.7910581
C -0.85507 1.2754838 0.9635726
C -0.76062316 0.22383769 -0.068183124
C 0.39607158 0.47460452 -1.0854182
N 1.4852728 -0.41298947 -0.6793336
C 1.0062633 -1.196708 0.19670266
N -0.34759727 -1.0536426 0.5090404
H -1.7329972 0.13831191 -0.5617753
H 0.07467244 0.21428782 -2.099178
H 0.7275941 1.5152454 -1.0915127
H 1.575122 -1.9913285 0.6723546
H -0.6403313 -1.2652495 1.4526728
