10

C 0.09429743 0.44464085 -1.3017509
C 0.40598178 -0.5464116 0.7982197
N -1.0543653 0.9913228 -0.9604507
C 0.89041054 -0.35068065 -0.4592128
N -0.7787932 0.03282945 1.1113677
C -1.5878533 0.8191284 0.30520806
H 0.4372887 0.6392283 -2.3200953
H 0.90186656 -1.1343882 1.5646077
H 1.8295249 -0.78066915 -0.7847786
H -1.138358 -0.11500037 2.0468848
