10

C 0.45876658 0.16923608 1.0478482
C -0.35638735 0.98994404 0.3060036
N 0.81863 -0.99966127 0.48895934
C 0.3912168 -1.4371306 -0.74105775
N -0.43975037 -0.6537407 -1.4728632
C -0.7674382 0.5172828 -0.9510814
H 0.8400932 0.40664148 2.0365129
H -1.4140546 1.1443969 -1.5676774
H 1.1429794 -2.0976257 0.18657516
H -0.67405546 1.9606569 0.66678035
