10

N 0.5102028 0.42024913 -1.5594889
C -1.1997267 -0.8878714 1.2034765
O -2.0965896 -1.6550221 1.3713846
C 0.27816787 0.27392897 -0.21698017
O -0.7559657 -0.61587125 -0.058543734
N 0.83073354 0.8313891 0.77350545
H -0.65759873 -0.34294862 1.9879327
H 1.5687665 1.46782 0.4968296
H 1.4046894 0.79173225 -1.8337044
H 0.11732053 -0.2834062 -2.1644118
