10

O 1.703002 0.39813748 -0.032657348
C 0.0498255 -1.2120769 0.61513126
C -0.6160836 0.81317306 -0.51611567
O 0.67585343 -1.3803214 1.6294456
C 0.4855601 -0.16455078 -0.40820807
C -1.5386835 1.5814011 -0.56495655
H 1.8555654 0.124952964 0.88681895
H 0.5999745 -0.6649626 -1.3817743
H -2.343565 2.2822638 -0.6138744
H -0.8714485 -1.7780168 0.38619056
