11

C -0.82336277 0.7478685 -0.8330148
C 0.5007027 0.6244613 -0.1304038
O 0.49458924 0.68384546 1.2888372
C 0.87038594 -0.5443845 0.68826723
C -0.053607207 -1.6570342 0.8533242
N -0.7712787 -2.5552247 0.9630575
H -1.1549752 1.7907236 -0.82844234
H -0.728355 0.42546156 -1.8752195
H -1.5890805 0.13937312 -0.34403735
H 1.3365288 1.1609179 -0.58134896
H 1.9184526 -0.816008 0.79898053
