11

C -1.24974674 0.15990566 -1.07324540
C -0.36131212 0.95674902 -0.21369120
O 0.85857232 1.20330910 -0.94197218
C 0.40978200 0.30494818 0.90170313
C 0.47849797 -1.16545839 0.79299070
N -1.98285354 -0.49995759 -1.67918373
H -0.87715336 1.88169171 0.06344294
H 0.21798025 -1.62992433 -0.16547496
H -0.29848519 -1.45870462 1.52421290
H 1.38724492 1.80583293 -0.39671179
H 1.41747338 -1.55839162 1.18792952
