9

O 1.172678 0.070454605 -1.2090194
C -0.14395136 0.0864937 0.55118126
C -0.097373016 -0.020473594 -1.6794211
O -0.6629712 0.09540724 1.7878636
C 1.1380227 0.2049528 0.15373018
N -0.93688333 -0.008724509 -0.59023064
H -0.90950745 -0.9742856 -1.3862693
H -1.624612 0.14626938 1.701739
H 2.0645978 0.39990592 0.6704263
