11

O -0.19140667 -2.288946 -0.031102546
C -0.0010028161 -0.95553386 -0.0018874529
C 0.17331888 1.1360767 -0.674731
C 0.05104665 -0.17257118 1.1540859
C 0.15431693 1.1503413 0.7265483
N 0.11788902 -0.23863348 -1.1343653
H -0.14762077 -2.5656993 -0.95529085
H 0.21341082 2.0314057 1.3521966
H 0.49425873 1.8987538 -1.3720739
H -0.0154019175 -0.5375926 2.1707516
H -0.8488089 0.5423991 -1.2341311
