10

C -0.027547317 1.0416645 -1.4939171
C 0.03872582 -1.0517104 1.4576701
O 0.14719109 -0.042835332 -0.5676505
C -0.2185273 0.20398064 0.66403484
H 0.6879548 -0.7835158 2.3009017
H -0.455851 1.8955534 -0.9646045
H 0.9545503 1.2846593 -1.9093484
H -0.9136235 -1.360278 1.9066164
H -0.69149315 0.6960249 -2.2885199
H 0.47862032 -1.8835429 0.8948172
