10

O -1.81373875 1.25959269 0.28751519
C -0.73968090 1.10933831 -0.23592009
C 0.36623624 0.31580706 0.45687190
O -0.01235007 -0.01060340 1.75573158
C 0.63411717 -0.85364240 -0.40342457
C 0.80558149 -1.78764523 -1.13894868
H -0.96965959 0.14667878 1.80416314
H 1.27067225 0.94087073 0.49103392
H -0.50630707 1.50914070 -1.23869371
H 0.96512931 -2.62953735 -1.77832875
