10

O 0.69762725 -1.1617299 1.1164937
C -1.1105913 0.35402694 0.6889626
C 0.85348064 0.21795726 -2.0894752
O -1.8618219 -0.4811148 1.122958
C 0.67484814 0.14518115 -0.9039158
C 0.38187227 0.06538617 0.54082644
H 1.0281897 0.2707643 -3.1429138
H -0.14789715 -1.6198506 1.2533832
H 0.9404942 0.8602343 1.0566114
H -1.4562016 1.3491453 0.35706925
