12

O 0.32721895 -2.294591 -0.61223775
C -0.45549387 1.9273295 0.45508653
C -0.08556886 -0.1296563 0.3971092
N 0.10509171 1.6186181 -0.72354555
N -0.6006702 0.85082835 1.1977601
C 0.042732067 -1.5282283 0.7976586
N 0.35641283 0.2878615 -0.7828316
H 0.49280506 -1.5693588 -1.2554196
H -0.73691624 2.9353132 0.7321931
H 0.34795353 2.2195518 -1.4943072
H -0.87969947 -1.9678499 1.1663686
H 1.0861346 -2.3498178 0.12216541
