12

O -0.07372713 -2.27023758 0.09511228
C 0.26546168 2.02104740 -0.03097252
C -0.03245031 0.00996830 0.50211724
N -0.21842682 0.01447915 -0.81652232
N -0.00773885 1.32700120 -1.14122370
C -0.18164391 -1.20690613 1.24609212
N 0.27097804 1.24777852 1.02907911
H -0.15878479 1.64965729 -2.08123236
H 0.44814149 3.08644753 -0.04089667
H -0.03157001 -1.70478051 -0.74291211
H -0.93190113 -2.71917305 0.08219101
H 0.65166174 -1.45528212 1.89916780
