11

N -1.5660207 -0.7123322 1.224886
C 0.40365127 0.30813566 -1.1797849
O -0.98634315 -0.096068054 -1.0110122
C 0.7333189 -0.2332783 0.22813646
C -0.7652175 -0.43023008 0.30282754
O 1.3583039 0.575258 1.174605
H 0.486557 1.3949153 -1.2677735
H 0.8543854 -0.19283251 -2.0377665
H 1.2823097 -1.1777692 0.19927095
H 0.7308361 1.2474638 1.4693155
H -2.5317805 -0.68326235 0.89729553
