11

N -0.39452988 1.3480756 -1.1923571
C 0.31050998 -1.3631701 0.58488923
O -1.0765883 0.20546779 1.5031848
C 0.08828633 0.08371914 0.94984144
C 0.20224223 0.35880947 -0.5744824
O 0.7763093 -0.63023585 -1.1080797
H 1.1417552 -1.9862163 0.9129046
H -0.468009 1.4103843 -2.198693
H -0.60831374 -1.8602415 0.27979302
H -0.9725585 1.9118388 -0.5772902
H 1.0008962 0.52156913 1.4202892
