11

O -1.1211783 1.2518197 -0.4870604
C -0.6134322 0.7319912 0.7175462
C 0.46198413 -0.29814616 0.4543703
C 0.42630807 -1.1355286 -0.74077815
O 1.2834816 0.006958144 -0.6690544
H -0.3467874 1.422189 -1.0427774
H -0.19389273 1.5262613 1.3562622
H -1.4466096 0.2717763 1.2589916
H 1.0109086 -0.6528027 1.3281809
H -0.40868548 -1.0327735 -1.4301705
H 0.94790345 -2.091745 -0.7455103
