11

O -0.42270044 -1.19189759 0.69910018
C 0.28592792 1.12501618 0.28113916
C -0.71271514 0.01998473 0.01030283
C -0.32521107 -1.17667833 -0.72845029
O 1.58279481 0.60377938 0.43831250
H 0.30715895 1.82249360 -0.56261674
H -0.03791445 1.68329773 1.17389164
H -1.76450763 0.30647389 0.03443248
H 1.48477517 -0.17373770 1.00756589
H -1.08611712 -1.76524945 -1.24011235
H 0.68850914 -1.25348277 -1.11356524
