11

C -1.63124967 0.77412422 0.65288632
C -0.53659932 0.60428969 -0.01356328
O 0.02312598 0.90901309 -1.22952881
C 0.83099828 0.22246592 -0.23412783
C 1.23448142 -1.18832142 -0.55692880
N -2.70122158 0.78847651 1.27723111
H -2.83762002 1.65071772 1.80736938
H 2.08837813 -1.18856001 -1.24216150
H 0.40376142 -1.72827530 -1.02053552
H 1.59783134 0.86563450 0.19981057
H 1.52811418 -1.70956451 0.35954845
