11

C -0.373982 -0.21318118 -0.43225121
C 0.5527963 -0.60469246 0.60306877
O -0.75648594 -0.8980947 0.81228036
C -0.8345947 1.2125015 -0.5704941
C 1.636776 -0.21935941 1.5097722
N 1.9361719 -1.3878767 1.0271109
H 1.1783139 -1.7370728 0.18223666
H -0.6513467 1.7595079 0.3566043
H -1.9062189 1.2391967 -0.79320776
H -0.29715976 1.7038329 -1.3878729
H -0.48427054 -0.8547617 -1.3072472
