10

O -0.5641213 -1.8769768 -0.78991044
C 0.21303247 -0.98923117 -0.045044605
C -0.3164372 0.4204107 -0.1449573
O -1.2939117 0.6882239 -0.8106178
C 0.4030675 1.5260751 0.6086601
O 1.3764191 1.3168838 1.2845377
H -1.264134 -1.3571196 -1.2071615
H 0.23830399 -1.2708725 1.0187883
H 1.258354 -0.9866 -0.39030638
H -0.050572686 2.5292068 0.47601205
