10

O 0.004693702 0.05198778 2.2273576
C -1.1605875 0.6647959 -1.8308316
C 0.5467747 -0.37467378 -0.050582033
O 0.31367645 -1.7084178 0.27509058
C -0.38298854 0.17517048 -1.0563326
C 0.40907377 0.50820917 1.1869994
H 0.6707473 1.5743301 1.0655092
H -1.8541448 1.0835805 -2.527582
H 1.5736134 -0.2717652 -0.43347055
H -0.12085837 -1.7032171 1.1438421
