11

O 1.7511905 -0.9161054 -1.8341497
C 0.73108834 -0.26647717 -1.9176295
N -0.035047147 0.08394349 -0.853911
C 0.33971024 -0.32308155 0.48835024
C -0.57877296 0.24858154 1.4723406
C -1.3420782 0.7231186 2.266774
H 0.3227312 0.106317535 -2.876354
H -0.8775701 0.6201524 -0.9892025
H 0.33466318 -1.4180477 0.56140935
H 1.36542 0.0026651176 0.69592637
H -2.0113354 1.1389331 2.986446
