11

O 1.65514408 -0.70603138 -2.15097654
C 0.63911040 -0.07068628 -2.01361818
N 0.01215420 0.13154667 -0.79234263
C 0.46644612 -0.35844635 0.38405717
C -0.24478661 -0.10407598 1.54315849
C -1.41306313 0.66402606 1.37976348
H 0.10045198 0.41630878 -2.84571041
H -0.86071608 0.65813419 -0.65808903
H 0.15248064 -0.52353427 2.46832031
H 1.38521905 -0.93635035 0.32417785
H -1.89244099 0.82910889 2.36125935
