11

C 0.68586576 -1.5766137 0.2874261
C 0.0662938 0.8690207 0.21574648
C 1.168808 -0.20012687 0.1571585
C -1.2796497 0.5009466 -0.35693032
N 0.2872634 -2.6548061 0.39384738
O 0.3280244 1.9543222 0.66853744
H 1.9056112 0.019166533 0.9355034
H 1.6737523 -0.098366976 -0.8103918
H -1.9201244 1.3833528 -0.39867124
H -1.1658497 0.0709914 -1.3582907
H -1.7499952 -0.26788643 0.26606476
