11

N -0.45321897 -0.39629263 -1.5476692
C 0.58556247 -0.29065642 -0.7991285
C 0.1255005 0.42915872 0.42139944
N -1.6598482 0.11849468 -0.99217254
N 0.6650816 -0.07003961 1.6721723
C -1.3959905 0.57358855 0.21396421
H 0.36703816 0.5675988 2.4079013
H 0.4828814 1.4693621 0.29002076
H 0.2176436 -0.95131296 1.8977978
H -0.5024457 -0.81344455 -2.4695294
H 1.5677956 -0.63645685 -1.0947562
