11

N 0.07750417 -0.79315768 1.61502114
C -0.99739659 1.13057578 0.22488297
C 0.59116944 -0.34658997 -0.77224675
N -0.13687981 0.26969940 -1.63286907
N -1.09240615 1.17431714 -1.08681709
C 0.18103060 0.19184584 0.55491275
H -0.09738398 -0.28920103 2.48228790
H -0.75602762 -1.35128255 1.46848878
H -0.10995496 0.16855994 -2.64049553
H 1.35834817 -1.05957682 -1.04581968
H 0.98199673 0.90480962 0.83265444
