10

O 1.3388809 -0.83247113 1.4613701
C -0.98241127 0.46581 -0.85150164
C -0.69947445 -0.54136145 0.06521155
C 0.54855245 -0.18959656 0.5834835
N 0.96016157 0.99114805 0.11684675
N -0.050330583 1.4256396 -0.83080536
H -1.3086231 -1.3975887 0.32358366
H 1.1239444 1.1668261 -1.086794
H -1.8339787 0.5605137 -1.5119828
H 0.9032787 -1.6489195 1.7305881
