11

O 0.29234514 1.769888 -0.24524212
C 0.3654317 -0.70344317 -0.83629763
C 0.49245432 0.45085374 0.17328551
C -0.6224175 -0.29845318 0.9263031
O -0.4884684 -1.4332901 0.05777353
H 1.2696469 -1.2655375 -1.0958235
H -0.45067263 -0.55735046 1.977957
H -0.53950953 1.8156302 -0.7352199
H 1.4440786 0.4486858 0.70856476
H -1.6074171 0.18381324 0.83086336
H -0.15547137 -0.4107964 -1.7621642
