11

N 1.0362376 -0.01936036 -1.551991
C 0.2791363 -0.025121264 -0.37474814
C -0.3758067 0.9681741 0.3188089
C -0.8750757 0.31645545 1.4716091
N -0.5731281 -0.9659053 1.4955697
N 0.13358973 -1.156799 0.35925007
H 1.0340598 0.8962943 -1.9836876
H 0.7286775 -0.7060806 -2.229635
H -0.4826996 2.0046391 0.03280954
H -1.45394 0.74422956 2.2802472
H 0.5489492 -2.056526 0.18176702
