11

N -1.5811652 -1.1046859 0.6494924
C -0.47130138 -0.42358783 0.15914135
C -0.010312551 0.86 0.558097
C 1.1498475 1.0359062 -0.15686662
N 0.33233368 -0.9815344 -0.73001146
N 1.3188747 -0.077176645 -0.8993442
H 1.8554841 1.8538438 -0.1850785
H -1.819703 -1.8963714 0.06695267
H 2.0690615 -0.2910322 -1.5343268
H -0.46039993 1.5339642 1.2718786
H -2.3827195 -0.5093257 0.80006564
