11

N 0.28291249 1.55214000 -0.33453742
C 1.03079796 -1.12860286 -0.03755104
O 1.75901865 -1.67636778 -0.82420521
C -0.45961914 -0.97345010 -0.28380248
C -0.63505743 1.22897921 0.47086583
O -1.06555849 -0.03612855 0.60095431
H 1.38182694 -0.75849031 0.94660943
H -0.95366125 -1.92647324 -0.07115614
H -0.62224817 -0.70476032 -1.33148761
H 0.47361594 2.54778156 -0.28878883
H -1.19202715 1.87537251 1.15309916
