11

N 1.7941346 -0.011277988 -1.3923589
C -0.36903712 0.58751506 0.7921017
O 0.82459986 0.45585278 1.2284691
C 0.76146084 -0.15953696 -0.7463427
C -1.0240446 -0.73594576 0.36546814
O -0.035465434 -1.199533 -0.55143327
H -1.0712532 -1.4454716 1.1912587
H -1.0256591 1.3872985 1.1724154
H -1.9851955 -0.6268243 -0.14477551
H -0.17824972 0.8962303 -0.59999645
H 2.3087094 0.85169315 -1.314806
