10

N -1.2292955 -0.7078443 -0.2945604
C -0.6284211 -0.0067927367 0.6954756
O -1.1210122 0.20176718 1.7838497
C 0.766467 0.55744684 0.38170525
C 1.3065017 0.19399717 -0.9271365
N 1.6813607 -0.12046714 -1.972057
H -2.1424904 -1.0952404 -0.117084555
H -0.7826085 -0.884648 -1.1823199
H 0.70684874 1.6462915 0.46256372
H 1.44265 0.2154901 1.1695639
