9

N 0.6729506 1.5425594 -1.1208533
C 0.7888514 1.0203797 -0.04530764
C -0.1152991 0.26867813 0.76271147
C -0.4659133 -0.5837967 -0.4248097
N -0.41903982 -1.1710377 0.9031256
H 0.38807744 -0.9630564 -0.9919004
H -0.8496459 0.90971386 1.2456359
H 0.4056717 -1.752791 1.0516555
H -0.40565288 0.7293506 -1.3802577
