9

N 1.5171586 1.1071861 -0.79472995
C -0.66411376 -1.2773923 0.4767972
C 0.4459822 0.5710363 -0.6004217
C -0.794485 0.06557332 -0.3492137
N -1.102005 -0.09457567 1.0898633
H -0.44328815 0.39871874 1.7028579
H 0.36876684 -1.5563828 0.7672752
H 2.2681394 0.5772058 -1.2292489
H -1.596155 0.20863058 -1.0631793
