9

N -2.1952658 0.31343833 -1.4359391
C -1.2751551 0.45233843 -0.7497241
C -0.10207897 0.6228997 0.08780571
C 0.46986815 -0.579158 0.7557121
N 1.1740292 0.055595685 -0.34418085
H -0.031715326 1.5930059 0.57319313
H 0.92931074 -0.45991066 1.733722
H -0.02963366 -1.5289952 0.58652
H 1.0606409 -0.46921408 -1.207109
