9

N -0.89186742 0.08876141 1.26801241
C -0.62327485 0.59997385 -0.09495447
C 0.66389690 0.43037312 -0.50941997
C -1.25951031 -0.80612782 0.25279523
N 1.83477939 0.35109434 -0.81825690
H -1.22588717 1.40221476 -0.50257557
H -0.03859567 -0.11577108 1.80008706
H -0.57078322 -1.67096914 0.17057617
H 2.11124248 -0.27954934 -1.56626406
