10

C -2.24353124 -0.46426368 0.55069544
C 1.02865195 -0.63128961 -1.14909114
N 1.35335634 -1.29148106 -0.13425644
C 1.14345335 0.21600451 0.01499815
C -0.03544374 0.67264248 0.78818676
N -1.18751480 0.15233679 0.60827745
H -2.97313136 -0.12370134 -0.19212702
H 0.80168834 -0.78916208 -2.19419501
H 2.04333385 0.81160911 0.16777359
H 0.06913764 1.44730450 1.53973801
