10

C -0.15829432 0.98724884 0.2742723
C 1.1916487 -1.0578408 -0.4878605
N 1.381277 -1.0227767 0.7506817
C -2.2903078 -0.29377192 0.46949658
C 1.1258798 0.2941088 0.016220132
N -1.2640446 0.34894133 0.28953528
H -2.9135125 -0.4838498 -0.41116825
H 1.1174467 -1.7813215 -1.287703
H 1.9845172 0.95686585 -0.090386674
H -0.17461015 2.052396 0.47691262
