11

N 1.32493105 1.45891398 -0.92840894
C 0.52821074 0.64792425 -0.38341046
C -0.39179347 -1.43406480 0.48249540
C -1.36171843 -0.32377322 0.42661436
C 0.85787453 -0.76369839 0.05794292
O -0.76873055 0.89352560 -0.06948016
H 1.45550265 -0.73834105 0.98831943
H -1.78386471 -0.14497013 1.42490918
H -2.19806238 -0.61181376 -0.22678011
H 0.86656394 2.34637476 -1.12321651
H 1.47108674 -1.33007738 -0.64898458
