9

O 1.0582606 0.80127203 1.1150483
C -0.3575904 -0.040255025 -0.5834687
C -0.38245183 -1.5038688 -0.26215947
O 0.74211824 0.43034062 -1.2190342
C -0.119488865 0.80744314 0.62796116
N -0.35663643 -2.6303916 -0.012123934
H -0.8118067 1.5363047 1.0515242
H -1.3320255 0.21118759 -1.0397071
H 1.5596211 0.38796756 0.32195973
