9

O -1.119471 0.36483938 -1.051385
C 0.07541352 -0.09128734 -0.5125653
C 0.4878491 0.7425072 0.70264256
O -0.22630596 1.6278157 1.0964316
C -0.005094523 -1.5046234 -0.067109294
N -0.05468508 -2.5925171 0.31542778
H -1.4812242 0.9953332 -0.40514553
H 0.87728775 -0.026563134 -1.2612561
H 1.4462302 0.48449564 1.1829594
