10

C 1.1092273 -0.13361423 -0.29832047
C 0.25644907 0.7422454 -1.0455953
N -1.8880692 -0.28217164 -0.2365955
N -1.0053645 0.5955016 -0.64618504
C -0.95746976 -0.12624627 0.8004581
C 0.40494472 -0.6931664 0.7169608
H 0.48575497 1.3660941 -1.897312
H 2.1329162 -0.3546061 -0.57547015
H -1.3067309 0.30262643 1.7459416
H 0.7683421 -1.4166628 1.436118
