10

N -1.09510019 -1.22298250 -0.84060319
C -0.18901145 -0.44036789 -0.23679075
O 1.00751212 -0.97465940 -0.13879203
C 0.40723860 1.47653018 0.81030515
O 1.59375360 1.14520327 0.99896999
N -0.55702454 0.75315241 0.20433816
H 1.56260093 -0.27803559 0.33708116
H -0.79854447 -2.08112303 -1.27336744
H 0.07286881 2.46165434 1.16628813
H -2.00429340 -0.83937145 -1.02742915
