11

N -0.6703292 -1.4291224 -1.7481776
C 0.72689253 1.0852132 0.8364759
C -0.37206563 -1.9425228 -0.63352686
N -0.34839827 -1.2000043 0.5744219
C 0.18336874 -0.09663144 0.65032077
N 0.12162862 2.3104038 0.51782703
H 1.752869 1.1297834 1.1931256
H -0.87325805 2.2521 0.35165805
H 0.32882378 3.039297 1.1861382
H -0.18889928 -3.006145 -0.4537915
H -0.6606323 -2.1423717 -2.4744713
