11

N 1.0381368 0.13355608 1.7683377
C 0.37217656 0.059282314 0.5408461
C -0.9703507 0.12651798 0.2724912
N -1.0537689 0.06231353 -1.1106163
C 0.20754546 -0.025508964 -1.5848272
N 1.0955147 -0.036390014 -0.6194216
H 2.0076852 -0.12402703 1.6435642
H 0.6195381 -0.43271494 2.4931061
H -1.8447946 0.22903964 0.8954356
H -1.898063 0.08861592 -1.656175
H 0.4263807 -0.08068446 -2.64274
