11

N 0.9501988 0.2583852 0.61111087
C 0.1397872 1.4060415 0.8525324
C -0.9309757 0.26850477 -0.6425359
N -0.93120986 1.4709029 0.16431032
C 0.19047496 -0.5044599 -0.21555378
N -0.024628164 -1.7778155 -0.4859763
H -1.2136407 -1.1963927 -0.7664522
H 1.6389403 -0.08553481 1.2605942
H 0.4718139 2.1384952 1.5788108
H -1.0079073 0.46676394 -1.7103403
H 0.71714664 -2.4448907 -0.64650023
