11

N -0.6311256 -0.7155626 -1.939038
C -0.3246945 -0.2771049 -0.80091834
C 0.706774 -0.87414825 0.13344523
O 0.43674362 -0.24592952 1.3724073
C -0.1309129 0.98844665 1.0502911
O -0.84603894 0.8120466 -0.17230923
H -1.3296622 -0.12772311 -2.3870704
H 0.5899844 -1.9538786 0.23614268
H 1.7206905 -0.6474769 -0.22659035
H -0.8283875 1.2803108 1.8368483
H 0.63662887 1.76102 0.8967918
