12

C 1.0051748 -1.5012351 1.0464885
N 0.24272761 0.29850817 -0.48866612
C 0.121742755 -0.4746377 0.604207
N -0.52063745 1.8577702 -1.9844644
C -0.7553761 1.1525899 -0.96130514
O -0.92041767 -0.39140424 1.363633
H 1.5292139 -1.2367489 1.9636086
H -1.3375475 2.4176085 -2.2150035
H 1.0989991 0.2644614 -1.0260544
H -1.6652279 1.1106025 -0.35842982
H -0.39758062 -1.4404413 1.7333764
H 1.5989289 -2.0570734 0.32260987
