12

C -0.8506394 0.019208493 0.24486314
N 2.1579146 -0.667419 -1.5664493
C 0.9290571 -0.7143845 -1.26185
N 0.47007847 0.010030095 -0.17255476
C -1.1061516 0.84452975 1.4884387
O -1.7130197 -0.6075077 -0.33175918
H 1.1675286 0.54442495 0.32876098
H 2.3414407 -1.2517416 -2.3775256
H -0.4420253 1.7116344 1.5590048
H -0.9480373 0.21401165 2.3711188
H -2.145416 1.1738603 1.4813188
H 0.1392694 -1.2766471 -1.7633665
