10

N 1.83189133 1.43560468 0.28707692
C 0.84014323 0.72784541 0.12455006
N 0.29026996 -0.62839157 -2.29624865
N -0.29621193 -0.85221948 -1.26160187
N -1.04170216 -0.56026390 1.03401985
C -0.11880056 -0.16144387 0.02079085
H -1.63711134 0.19539843 1.35006942
H 1.72952502 2.41849000 0.05112189
H -1.01382256 -1.59178238 -1.14296915
H -0.58418120 -0.98323710 1.83319086
