10

N 1.598266 -0.0008567894 -0.8834966
C 0.36737275 -0.004526371 -0.20590353
N -1.0031043 0.35437575 1.5729772
N 0.15142813 0.40234646 1.0841949
N -2.0541635 -0.54668236 -0.4128759
C -0.8582286 -0.40503106 -0.6851902
H 2.2509465 -0.6635218 -0.48162854
H -0.9644359 0.6826809 2.5382612
H -1.5063041 -0.74030364 -1.6483824
H 2.0182228 0.92151886 -0.87795573
