10

N -1.19764 -0.28463826 0.97615343
C -0.20091127 -0.0129265785 -0.008804628
N -0.067493826 1.0347581 -2.1625473
N -0.71555376 0.62108916 -1.2279617
N 2.2462757 -0.6678115 0.08644698
C 1.0832015 -0.27055863 0.06771148
H -1.7509043 0.6530108 -1.1729863
H -1.2944769 -1.2746137 1.169744
H -1.0452911 0.21320097 1.8446987
H 2.942794 -0.011510294 0.42754546
