12

O -0.2635998 -1.4502368 -1.5339974
C -0.95291406 -0.7956734 -0.596523
C 0.46180308 1.507129 -0.3528882
O 0.557413 1.3548529 1.0331186
C 0.45704263 0.17400257 1.5200081
O 0.33795482 -0.8565436 0.7846534
H -1.6041361 -1.3638401 0.060929872
H -1.2985414 0.16616288 -0.94067734
H 1.1297604 0.81873095 -0.8741422
H 0.43357614 0.12834728 2.6095028
H 0.6175271 2.5650346 -0.5657153
H 0.12411426 -2.2479663 -1.1442693
