10

O 0.73088074 -0.01992230 1.15896879
C -0.57222097 0.02887071 -0.80341303
C 1.31883412 -0.59547955 0.08957363
C -0.54657621 0.46139194 0.68295820
N 0.71909087 -0.62963863 -1.02436296
H -1.32802799 0.00036960 1.29203295
H -1.38514192 -0.67105887 -1.02349987
H -0.56833506 1.54500384 0.82449180
H 2.30695401 -1.00015981 0.28695190
H -0.67545767 0.88062289 -1.48370174
