11

N 2.990922 -0.51837873 0.303868
C -0.4533735 -0.3000234 0.2671392
C 0.64553493 0.040143423 -0.72731763
C 1.9632889 -0.26718608 -0.15570769
C -0.8646759 0.7284612 1.2465081
O -1.7899753 0.045877106 -0.19520678
H -1.3855399 0.17125987 2.0462823
H 0.610682 1.1114472 -0.94592416
H -0.48571315 -1.3721685 0.48802763
H 0.52226067 -0.5283988 -1.6573675
H -1.7534107 0.88896674 -0.6703017
