11

N 0.77825606 -0.36247455 -2.92738729
C 0.39193395 0.69396818 -0.55867133
C 0.61565737 0.10744608 -1.88667906
C -0.49233603 -0.21694075 0.27832873
C 0.14701678 -1.28153365 1.08081464
O -0.70154963 0.25769909 1.63879263
H 0.12317729 0.64076350 1.97186836
H 1.36267989 0.80111571 -0.06585588
H -0.66374448 -1.99849241 1.30452809
H -1.49277833 -0.32369845 -0.15416481
H -0.06831274 1.68214706 -0.68157394
