10

O -2.3895004 0.9539876 0.40507776
C -1.7662109 -0.05773169 0.62363964
C -0.35613197 -0.22346579 0.21165128
N 0.27517524 -1.3424327 0.4656618
O 1.5326804 -1.1755203 -0.029331034
C 1.6394398 0.052101377 -0.5770348
C 0.4711833 0.7200435 -0.4623863
H -2.2107263 -0.924493 1.1461643
H 2.6064131 0.28567287 -0.9989847
H 0.19767764 1.7118382 -0.7844579
