10

O 2.2058334 -0.46274343 0.51161224
C -0.12870625 0.5183144 -0.6546035
C -1.4580963 0.65503675 -0.8029391
N -1.2068378 -0.69526803 0.9325761
O -2.109295 -0.066193886 0.13940898
C 1.155377 -0.92154247 1.174049
C -0.02548176 -0.36194137 0.4779084
H 2.9934545 -0.81595653 0.94176006
H 0.6689513 0.9534088 -1.2336166
H -2.0951986 1.1968858 -1.4861557
