15

N -0.66514176 -1.9372824 -0.28630954
C 0.055575624 0.8100072 1.2434958
O 1.04254 -1.1309177 -1.4762481
N 0.730399 -0.4020726 0.7805651
C 0.12637818 -0.7691605 -0.49129567
C -0.35718805 1.474828 -0.06594544
O -0.5987616 0.37243643 -0.94167674
H 1.3561502 -0.326894 -1.903353
H 1.7241063 -0.26878795 0.6318984
H -0.82762283 0.5340905 1.8294028
H -1.3618729 -1.7631379 0.42505392
H -1.1116556 -2.1993694 -1.1565721
H -1.2706406 2.0738776 0.0041764355
H 0.70663893 1.4263414 1.8713216
H 0.45109496 2.1060412 -0.46451348
