10

N -0.15933487 -0.7499509 -0.8444009
C 1.0602155 -0.28758502 -0.420161
C 0.8365992 0.5946982 0.60963666
C -0.56981885 0.66585267 0.8111856
C -1.1575778 -0.17561772 -0.10320643
H -0.2992651 -1.4091583 -1.5913028
H 1.975857 -0.6240248 -0.8835999
H 1.5938823 1.1325638 1.1626627
H -1.0855591 1.2672887 1.546747
H -2.194998 -0.4140666 -0.2875612
