10

N -0.9383875 -0.4059721 0.31958055
C -0.5441192 0.8174578 0.8381427
C -0.0850663 -0.8442571 -0.6075348
C 0.92589664 0.15933838 -0.69078094
C 0.5914609 1.3267994 0.20437872
H 1.5286324 0.18541767 0.32200637
H -1.1628226 1.2721268 1.6025667
H -0.22797495 -1.7818158 -1.1265221
H 1.6582968 0.20199391 -1.4904373
H -1.7459164 -0.9310886 0.62860006
