10

N 0.16600506 -0.37325364 1.0034667
C 0.87002796 0.3952737 0.23660547
C -1.1910691 -0.27735338 -0.89064795
C 0.08441987 0.5358408 -1.0345101
C -1.0655692 -0.7890139 0.3606727
H -0.12876338 1.5968384 -1.2295974
H 0.45677033 -0.64613795 1.9366666
H -1.7028954 -1.4375926 0.9512206
H 1.8242897 0.7966718 0.5547881
H 0.6867844 0.19872698 -1.8886646
