10

O -1.84769244 1.04422026 1.14811977
C 0.15523548 0.85971159 -0.38840049
C -0.94575666 0.40528664 0.63099555
N 0.67129450 -0.56753897 -0.34862601
C -0.41893129 -0.88303115 0.61902758
H 0.90859090 1.56498509 -0.03229485
H -0.18247919 1.12408259 -1.39304751
H -0.59845784 -1.86969023 1.01948260
H 1.62936899 -0.64084866 0.00102024
H 0.62882754 -1.03717699 -1.25627675
