11

N 1.8503796 -0.110871226 -1.4352465
C 0.59939307 -0.13000506 -0.86946326
N -0.54579186 -0.2429737 -1.4443961
N -1.5013422 -0.06694816 -0.43453768
C -0.8367558 0.09275316 0.6546294
N -1.3000951 0.19335927 1.9435595
O 0.51549345 0.07525064 0.47619134
H 2.5442758 -0.65282106 -0.93801165
H 1.8061771 -0.34938788 -2.4166465
H -0.8270218 0.8898777 2.5031033
H -2.3047123 0.3017663 1.9608184
