11

N 0.37222007 -0.7282448 -0.44530052
C -0.9244244 -0.7522965 -0.25458688
N 1.988585 0.9764966 0.013966418
N -0.29919943 1.2117187 0.54853505
C 0.69572055 0.5035672 0.06255978
N -1.3614595 0.36939934 0.32259214
O -1.7733458 -1.7326759 -0.56704044
H 2.6798468 0.24208306 0.03347626
H -1.2490826 -2.4345589 -0.9798138
H -2.296948 0.62442875 0.5935329
H 2.168088 1.7200823 0.672079
