10

O -0.68402076 1.89074268 -0.33496572
C -0.26654473 -1.29768334 0.00889200
N 0.79638143 0.53291490 0.84576440
C 0.58185981 -0.70651547 1.07549779
C 0.15436268 0.79130419 -0.43439811
N -0.56154691 -0.41419564 -0.86283211
H 0.96921766 -1.22139679 1.94890840
H -1.34187107 1.80254932 -1.03626761
H 0.96910801 0.94665731 -1.16331297
H -0.61694612 -2.32437717 -0.04728589
