9

N -0.11968398 -0.8474655 0.4520232
C 0.3594209 0.37629706 0.8588041
C 0.27605093 1.1772935 -0.2470356
N -0.23699848 0.4818282 -1.31201
C -0.46336102 -0.7266705 -0.85914046
H -0.20095725 -1.6777091 1.0143993
H 0.7028355 0.54861575 1.8672563
H 0.55489564 2.21792 -0.34458834
H -0.87220204 -1.5501096 -1.4297085
