10

N 0.04341776 -0.92921114 0.83501
C 0.562694 0.21421482 1.279967
C 0.58228695 1.1660879 0.2534266
N 0.050212286 0.5241508 -0.92545784
C -0.27007166 -0.68860686 -0.44786838
C -0.93694574 -1.659514 -1.2718042
N -1.473292 -2.4382522 -1.9334927
H 0.9087887 0.32766277 2.3000166
H -0.58184725 1.3800305 -0.24711965
H 1.114757 2.1034372 0.15732224
