10

N 0.78801316 0.9122894 0.3328722
C -0.45814633 1.2058079 0.31211728
C 0.800795 -0.45402148 -0.064812854
N -0.31202507 -1.0172114 -0.3238006
C 2.0729904 -1.1381183 -0.15581244
C -1.2954285 0.032308076 -0.10006126
N 3.0916314 -1.6711135 -0.22545066
H -2.003403 -0.2804886 0.6749439
H -1.8636489 0.213803 -1.0187439
H -0.82077825 2.196745 0.56874824
