11

O -0.2699422 2.5239618 0.23360346
C 1.1964471 0.58977705 0.42597494
C -1.5397168 -0.49055433 0.44597372
C 0.9904024 -0.6850091 0.11809662
N -0.312953 -0.82918924 -0.46255997
C -0.021463513 1.362336 0.060107704
N -0.9237598 0.4490942 -0.57838607
H -2.3686914 -0.97029257 -0.10722304
H -0.4111156 -1.397362 -1.2975721
H 2.0625098 1.0155742 0.9122771
H 1.5982828 -1.5683359 0.24970777
