10

O 0.08888069 -2.1310284 -1.3614424
C -0.6018279 -0.31633645 0.023914184
C -0.3602881 -1.5820985 -0.20599899
C -0.7850501 0.93948096 0.33984265
N 1.3842332 1.514332 0.4683261
N 0.24627826 1.766297 0.9021212
H 0.2782292 -1.4252529 -1.9921744
H 2.0198524 2.138388 0.98528016
H -1.7509704 1.4338788 0.2804179
H -0.5193374 -2.3376598 0.55971366
