9

O -0.26263198 1.460108 0.56855416
C -0.7253656 -0.7928116 -0.29817557
C -1.3005555 -1.5257654 -1.0584189
C -0.024778467 0.058716685 0.64498794
C 1.0195638 0.99123013 0.1997434
H 1.249796 1.051278 -0.8621965
H 0.029427681 -0.3239308 1.6636864
H 1.8297825 1.247963 0.8804058
H -1.8152384 -2.1667883 -1.7385868
