14

C -2.3925672 -0.0805609 0.9733257
N -1.3513005 0.13520923 -0.0145507185
C -0.033193327 0.038376387 0.3437972
O 0.3526853 -0.07398598 1.4930876
N 0.84226644 0.1079559 -0.73453397
C 2.2150738 0.006499359 -0.5915759
N 2.962822 0.1129219 -1.6132677
H -2.0364165 0.29279345 1.934092
H -2.6473718 -1.1417297 1.0830041
H -3.2872648 0.4737494 0.67912304
H -1.595334 -0.021532422 -0.97951156
H 0.5149 0.30169564 -1.6713884
H 2.519095 -0.16767141 0.44214115
H 3.9366055 0.016279077 -1.3437432
