14

C -1.8390975 0.489118 -1.0600313
N -2.7698736 1.2741857 -1.4118538
C 0.2327477 0.15645337 0.17149003
O 0.29625636 -1.0585834 -0.18586233
N 1.1963701 0.56499434 0.9357525
C 1.9921219 -1.3690805 0.8749137
N -0.82094663 0.9473742 -0.2466307
H 1.2280172 1.5169433 1.2845404
H 2.9203641 -0.8206273 0.98245585
H -1.7208451 -0.5633765 -1.3268735
H 2.0487216 -2.1592448 0.13401024
H -3.43415 0.78117186 -2.0039396
H 1.5459563 -1.6735592 1.8130735
H -0.8756421 1.9142311 0.038954772
