14

C -0.56913866 -0.14313710 -0.40728579
N -1.41959973 -0.51218767 -1.27533446
C 0.13194275 1.01571212 1.66804598
O 0.72973296 -0.47240529 -0.50424068
N -0.80078108 0.61941361 0.72917176
C 1.07390113 -1.25082027 -1.64797203
N -0.24689470 1.71910992 2.65582538
H 0.53897668 1.93286058 3.25985333
H 0.53336421 -2.20232802 -1.64449971
H -1.74537232 0.92693129 0.90461263
H -2.35379507 -0.17707685 -1.06144466
H 0.83353050 -0.71287318 -2.56917146
H 1.14486205 0.67081766 1.45858880
H 2.14927119 -1.41401687 -1.56614974
