12

N -1.01900615 -1.62753007 -0.24638522
C 0.34251940 -1.12297034 -0.20080426
C 0.34031928 0.39581713 -0.25336683
N 0.98900102 1.39460650 -0.96133339
C -1.64777975 -0.67718459 0.32030855
N -0.81334702 0.42012852 0.74454071
C 0.50597465 -0.23043728 1.00658451
H 1.15577131 -1.70665564 -0.62039717
H 1.14159236 -0.10794354 1.87488625
H 1.26618251 2.17570711 -0.38012118
H 0.45874354 1.71756429 -1.76281690
H -2.71997077 -0.63110205 0.47890537
