10

N 0.31841218 -1.7829099 0.5156266
C -0.7572648 0.383392 -0.19067585
O -1.9010397 -0.026781844 -0.21767019
C 0.3804711 -0.5322803 0.18220372
O 1.6104324 -0.15334931 0.2163041
N -0.33959657 1.6349334 -0.46710044
H 0.64050376 1.8617582 -0.42015392
H -1.0183743 2.3313231 -0.73141694
H 1.6164477 -1.4152739 0.5574903
H -0.5499917 -2.3008115 0.5553927
