10

N -0.12661414 0.39634565 1.5723807
C 0.51475346 0.51474935 0.38758674
O -1.1774147 -1.0104834 -0.37998572
C -0.08771963 -0.29626662 -0.7454609
O 1.4970601 1.1983554 0.18234839
N 0.36773542 -0.318783 -1.9186133
H -0.9272058 -0.20222998 1.6792065
H 1.1865644 0.28872445 -1.9675848
H 0.22599103 0.9107805 2.3637953
H -1.4731506 -1.4811925 -1.1736728
