10

N 1.23213267 -1.51431514 -0.32653906
C 0.25849541 -0.71961136 -0.25791513
O -0.95708542 -1.02082463 -0.77050353
C 0.31922658 0.64855144 0.39703521
O 1.35872343 1.03266676 0.89328926
N -0.84040018 1.34379724 0.36529240
H 2.04250157 -1.08451461 0.12125348
H -0.87734858 -1.90511823 -1.15861798
H -0.86371272 2.25983600 0.78438690
H -1.67253277 0.95953244 -0.04768152
