12

N 0.1775825 0.33759972 0.68152785
C -0.82343787 1.19041 0.028208116
O 1.8133302 -0.959549 -0.3324933
N -0.28653938 -1.817723 -0.050841846
C 0.6664106 -0.8533813 0.040678233
C 0.50742686 1.788955 -0.23772255
H -1.1311154 -1.751451 0.49143636
H -1.3375725 0.6650673 -0.77808577
H -1.5020874 1.6776434 0.7295169
H 0.9327136 1.3573862 -1.1515325
H 0.9656298 1.0934507 0.93265134
H 0.017658902 -2.728408 -0.3533429
