11

N 0.9497269 1.1429876 1.1221435
C 0.11961174 0.32263228 0.35912222
C -1.2045337 0.12627706 0.31380174
O -1.5106717 -0.72879267 -0.7362095
C -0.35014886 -1.0895308 -1.3603613
O -0.27860364 -1.8041494 -2.3228097
N 0.6633344 -0.46642572 -0.6570977
H 1.6175334 0.6207246 1.6770964
H 0.42172354 1.7592624 1.7248282
H -2.0265875 0.4996579 0.90151227
H 1.5986153 -0.3826435 -1.0220261
