11

N 0.86067581 0.66574231 1.74289532
C -0.92424644 0.90652352 0.01740977
C 0.17258946 0.34946152 0.58122386
O -1.14707435 0.23347574 -1.18861564
C -0.17224881 -0.65703805 -1.22809794
O -0.15955476 -1.44614777 -2.29768243
N 0.65377214 -0.67224062 -0.23544199
H 0.29090164 1.05306894 2.47955747
H -1.60365890 1.70613638 0.25552999
H 1.42359777 -0.10905973 2.06559013
H 0.60524632 -2.02992248 -2.19236851
