10

N 0.83656496 0.3465968 -0.824978
C 0.33855772 -0.53376925 0.6840119
C 1.2891748 0.2959266 0.5634091
N -0.6560145 -1.3827307 0.90237063
C -0.30511272 1.0754917 -1.0844519
O -1.3249038 1.128752 -0.42028892
H 2.1275606 0.78032506 1.0414445
H -1.5528227 -0.9716759 0.66078186
H -0.51967674 -2.3189569 0.54028505
H -0.23332731 1.5800405 -2.0625842
