10

N -1.14933752 0.53233386 1.19747858
C -0.30502453 -0.31139645 0.59306035
C 0.61624658 -1.23525237 0.47558199
N -0.04821197 -0.61448317 -0.77760169
C 0.63694015 0.37642543 -1.47620989
O 0.35528975 1.54867699 -1.42003899
H -1.25862716 1.41108952 0.70765614
H -1.08501775 0.60105799 2.20120708
H 0.82448393 -2.27529744 0.64650785
H 1.41325852 -0.03315453 -2.14764130
