13

C 0.46668258 -0.06702222 0.12959456
C 0.9874986 -1.1239327 -0.82104874
N 0.5275075 -0.36093926 1.4627491
O -1.4404149 1.6071985 0.26552945
C -0.95709395 0.4248001 -0.30857998
O 0.51595753 0.82024217 1.9987241
H -1.6027435 1.4481001 1.2061391
H 0.6755168 1.2200567 0.80757284
H 1.1491141 -0.67827636 -1.8095754
H 0.28650936 -1.9628305 -0.94466984
H 1.9431552 -1.5192311 -0.46770585
H -0.8934942 0.59986544 -1.3852856
H -1.658195 -0.40803096 -0.1334434
