12

C -0.10888955 -0.2884135 1.0541515
C 1.8101393 -1.4589258 0.47633013
O 0.7567071 -0.5733811 0.08339777
N -2.1547494 1.8690437 -0.9695713
C -1.1767422 1.0979255 -0.72873145
N -1.0426166 0.55738777 0.55361384
H 1.6785401 -1.73489 1.5268734
H 1.7668428 -2.3457813 -0.16235434
H -0.3949575 0.79178923 -1.42733
H -1.764104 0.8506961 1.2002685
H -2.1327064 2.1789143 -1.9356295
H 2.762536 -0.9443645 0.32898155
