11

N 2.24827941 -0.56368143 1.32119487
C 1.35132322 -1.09090324 0.59481375
C 0.19471357 -0.39860565 0.01928770
N -0.74302400 -0.91121188 -0.71612632
C -1.09412870 1.26644358 -0.38921175
C -1.58220569 0.15548163 -0.98807669
O 0.04876106 0.92723319 0.26626899
H 1.39510964 -2.15397397 0.35012511
H 2.05007922 0.42981222 1.45836529
H -1.39945401 2.29888208 -0.32387352
H -2.46945372 0.04052330 -1.59276753
