12

O -1.3866357 -0.084073655 -0.68561447
C -0.06690106 -0.299469 1.2977374
C 0.72480273 1.0166068 -0.6983352
O 0.42494795 -1.756816 0.41770393
C -0.4657294 0.5852234 0.14538944
O 0.7911411 0.76246977 -1.8821943
H -0.903907 1.4928538 0.5991409
H -0.17575783 -1.6723198 -0.352381
H 1.5260643 1.5576369 -0.16444588
H -1.1296064 0.14251988 -1.5964005
H 0.90245074 0.019246973 1.7027035
H -0.24086933 -1.7638788 1.2166965
