11

C 0.81295675 -1.5919849 0.43182912
C -0.54274565 1.6213303 -0.59318453
N 0.5548988 0.6521356 -0.64787334
C 0.17135543 -0.30032048 0.07577142
C -1.6257752 1.0616988 0.2936084
O -1.123534 -0.10168641 0.6595855
H 1.7837307 -1.6643431 -0.055380564
H -0.19792053 2.5879498 -0.20310274
H 0.93746257 -1.6613531 1.5171258
H 0.17666987 -2.4246345 0.11640483
H -0.94709885 1.8212076 -1.5947839
