11

C -0.25338843 -0.04920157 -0.22994128
C -1.3117298 0.019341849 -1.2720869
N -0.39869532 -0.019484436 1.0487475
C 1.8751103 -0.30184743 0.4562817
C 0.9247056 -0.14237183 1.5067827
O 1.0300455 -0.14556606 -0.6527516
H 1.1395748 -0.28603032 2.560556
H -2.2905743 0.037701543 -0.79516566
H -1.2321607 -0.8466247 -1.9347916
H 1.6965201 0.8136388 1.190082
H -1.1794083 0.9204441 -1.8777126
