11

C 0.13510367 0.28332385 -0.045192346
C 0.03434273 0.893562 1.203904
C -0.98154634 -1.6544393 0.69576097
O -0.37937465 -0.93947244 -0.18790501
C 0.79715884 0.8711021 -1.2511704
N -0.06534499 1.3874229 2.2591448
H -1.1171123 -1.2804065 1.7016636
H 0.3423391 1.8283075 -1.53332
H 1.8675772 1.0471817 -1.0845121
H -1.3201668 -2.6143322 0.33045554
H 0.68702346 0.1777502 -2.0888298
