11

C -1.31681320 0.71688197 -0.03317855
C 0.01693519 0.31587527 0.02244449
C 1.19229327 1.22254559 0.20863175
O 0.28331279 -0.98784507 -0.07574845
C -0.54800133 -1.95784922 -0.22628983
N -2.44209772 1.03035516 -0.08645772
H 1.15437583 1.74808965 1.17140909
H 2.10790413 0.62663134 0.17572473
H 1.24504151 1.98032234 -0.58238253
H -1.61059409 -1.76329295 -0.28253275
H -0.08235675 -2.93171431 -0.29162086
