11

C 1.297601 0.63771623 0.5747634
C 0.10174906 -0.29114634 0.41179904
C -0.74880916 0.05048298 -0.7852804
O -0.54146904 0.94733787 -1.5594759
C -1.9295788 -0.83272153 -0.974644
N -2.843572 -1.5225568 -1.115027
H 1.9471639 0.60077095 -0.30406338
H 1.8806181 0.3430435 1.4511546
H 0.9750461 1.6746788 0.70441943
H -0.55230933 -0.26948187 1.2936954
H 0.4135598 -1.338124 0.30265817
