10

O 1.283778 0.9839519 1.8109336
C 0.7179646 -0.0640469 2.0218751
C -0.62551254 0.7171246 -2.247751
N 0.16990127 -0.09913435 -1.4208901
O -1.5941302 0.3151171 -2.8301544
C 0.014962465 -0.8540089 0.9919907
C 0.044753775 -0.44899696 -0.2654274
H 0.70306027 -0.51617247 3.0335414
H -0.20128539 1.7316649 -2.3399155
H -0.51349217 -1.7654988 1.2457976
