10

O -0.6507638 -0.01741729 -2.729109
C 0.15005797 -0.33805877 1.8289692
C -0.04312909 0.5097837 -1.861928
N 1.3774812 -0.49622795 -0.8189842
O 1.3519167 -0.57826865 1.80335
C -0.62361944 -0.11049076 0.63218284
C 0.22868262 -0.2710117 -0.43704847
H -1.6831878 0.08082624 0.5767412
H 0.3004648 1.544671 -1.7762216
H -0.40790325 -0.3238059 2.7820482
