10

O -2.3895106 0.9553266 0.40732545
C -1.7672074 -0.056787677 0.624737
C -0.3571376 -0.22421202 0.20963411
N 0.27435178 -1.3427283 0.46395102
O 1.5349474 -1.1763275 -0.03149335
C 1.6372048 0.04872884 -0.5770692
C 0.4710875 0.71857363 -0.46290407
H -2.2083302 -0.9233367 1.1500875
H 2.6029053 0.28884065 -1.0007358
H 0.20168896 1.7119225 -0.7835327
