10

O 1.3042693 1.4094714 -0.13990399
C -0.53943646 -0.7688376 -0.7158798
C 0.9270951 0.63386655 0.7610558
C -0.12995115 -0.28736207 0.6729941
N -1.0635471 0.496491 -0.86585754
H 0.2921131 -1.1170466 -1.3319647
H 1.4255338 0.6538828 1.7456921
H -1.3264711 -1.53042 -0.62669355
H -0.67997533 -0.59884006 1.5502044
H -0.20963004 1.1087943 -1.0496469
