10

O -1.5078543 -1.0251486 0.019056877
C -0.7167599 -0.7411656 0.9347234
C 0.49982038 -0.0998753 0.7234526
C 0.5510876 0.6952751 -0.56635916
N 0.043444633 -0.27287227 -1.4293425
H 1.3426465 -0.1461599 1.402946
H 1.6271061 0.79734504 -0.7635106
H -1.0223321 -0.8843472 1.98362
H 0.067386486 1.6804386 -0.5356903
H -0.88454527 -0.0034897658 -1.7688965
