10

O 0.91188675 -1.1049426 -0.5762819
C 0.24472426 0.9332194 0.14843306
C -0.79721874 -0.06640297 0.595012
C 1.1881145 0.23202364 -0.4620043
N -0.4679312 -1.2721934 -0.18996976
H -1.8309611 0.22692417 0.38947594
H 0.2549494 1.9884962 0.37915275
H -0.7151768 -0.28648487 1.6665785
H 2.1523204 0.52104145 -0.8603175
H -0.9407078 -1.1716807 -1.0900788
