10

O 1.8335261 -0.16154741 0.7777381
C 1.1366413 -0.8094875 0.031982593
C -0.117496945 -0.26728398 -0.56046367
C -1.0623252 0.38619408 0.39464703
N -0.29382658 1.180892 -0.5368309
H 1.3992673 -1.8491237 -0.24796501
H -0.50755316 -0.7828442 -1.4344726
H -2.1283555 0.32657105 0.19490899
H -0.77204716 0.3929662 1.4441007
H 0.51217026 1.5836637 -0.0636453
