10

O 1.1664059 2.076692 -0.026329473
C 1.1436642 0.8984618 0.22120789
C -0.11281268 0.1375061 0.6067456
C -0.38678092 -0.9424205 -0.41834915
N -1.350381 -0.9936888 -1.2363392
H 0.3507069 -1.7519405 -0.45551944
H 0.062756516 -0.33960977 1.5809526
H -0.94397646 0.84652656 0.68608147
H 2.06324 0.27596006 0.15300368
H -1.9928226 -0.20748705 -1.1114541
