14

C 0.1204878 0.047587074 -0.2611744
N 1.091783 0.8783324 -0.49122328
C -1.3816969 -1.0783575 1.3189634
O -0.34765446 -0.6741826 -1.2546698
N -0.40509397 -0.14520417 0.9824982
C 1.6248335 1.0725915 -1.8269354
N -1.7749128 -1.1675603 2.521366
H 1.0217804 1.8281881 -2.3419936
H 0.21442738 -0.45198515 -2.0258183
H -0.056437753 0.40280652 1.7554826
H -1.7339196 -1.6583359 0.46241704
H 1.4467909 1.4336259 0.277169
H -2.4792826 -1.8951172 2.6107876
H 2.6588955 1.4076111 -1.7268689
