14

C -1.94892289 -0.17753526 0.99085135
N -2.51752725 -0.14632253 2.12401627
C 0.16781558 -0.00530321 -0.23833532
O -0.45508688 -0.18975557 -1.38075013
N -0.57329963 0.01806428 0.90636044
C 2.22561610 0.08384320 -1.47235620
N 1.46215412 0.10034905 -0.23831419
H -0.10892670 0.16010339 1.79155219
H -3.51528672 -0.31381731 2.02454961
H -2.42048950 -0.33362873 0.01752345
H 0.25242732 -0.26367657 -2.05449864
H 2.26655392 1.10109992 -1.87658025
H 1.93657981 0.24488995 0.64420287
H 3.22839291 -0.27831061 -1.23822171
