11

C -0.06285004 0.2726297 0.57698023
O 1.1709278 -0.2507538 0.99135137
C -0.7300529 -0.9516355 -1.2823514
C 0.9596104 1.1627802 1.0928886
O -0.3222926 0.30499205 -0.7688673
H 0.071516484 -1.6925403 -1.1856952
H 1.5259838 1.7585244 0.3808635
H -0.96407783 -0.7986229 -2.338287
H 0.89412355 1.5525725 2.1081715
H -1.6284881 -1.3198462 -0.76451135
H -0.91440046 -0.03810003 1.1894572
