11

N 0.52105355 0.26082855 1.1319805
C -0.18453237 -0.34819618 -1.0638903
O 0.87950224 1.6937684 -0.32067028
C -0.7997002 0.043125346 1.0440971
C 0.9634817 0.40822092 -0.34513173
O -1.3055662 -0.22708441 -0.15678571
H -0.0589299 -0.84934515 1.6086233
H 0.024622595 -1.4147241 -1.2073054
H -0.46656704 0.13821456 -1.9975737
H -1.518698 0.3849155 1.7898682
H 1.9453336 -0.089723244 -0.48321196
