11

C -0.10715526 -0.046139102 0.24814218
C -0.3754142 -0.21672179 1.69861
N -0.32793304 -0.8771788 -0.73148125
C 0.15324837 -0.2862404 -1.991029
C 0.5944513 0.923982 -1.5735831
O 0.38929954 1.0924942 -0.2058333
H -0.91417414 0.6498194 2.0924914
H -0.9696974 -1.1192701 1.8510432
H 1.0315149 1.7799668 -2.0630033
H 0.5664524 -0.31242666 2.2501261
H -0.04059224 -1.5882857 -1.5754825
