11

C 0.023348628 -0.08006985 0.1604881
C -0.59958225 -0.086132444 -1.9159521
N 0.24499066 1.0996188 -0.38707784
C -0.13780405 1.1828351 -1.7672582
C 0.28737557 -0.5338897 1.5496223
O -0.5015539 -0.86776817 -0.7315463
H 0.7278605 0.27838406 2.1336324
H 0.648499 1.8743005 0.12035363
H -0.6428387 -0.8504754 2.0291817
H -1.0263193 -0.6339657 -2.7412603
H 0.9760238 -1.382837 1.549817
