11

C -1.30340287 0.81922432 -1.29143437
C 0.10314127 -0.13955853 0.05097114
N -0.16635206 1.08288760 0.46764580
C 1.00202552 -1.15816048 0.65081586
C -1.09132330 1.79297782 -0.36815003
O -0.56923235 -0.37242973 -1.03779027
H 0.43783287 -2.05894022 0.90730138
H 1.78721694 -1.43857462 -0.05614262
H -1.91013352 0.75220169 -2.18067298
H 1.46764042 -0.76229461 1.55711404
H 0.24258705 1.48266669 1.30034196
