11

C 1.04758136 1.18127098 -0.47780818
N 1.14589115 -0.03730419 0.29493757
C -0.50462266 -1.61402259 0.86686891
N -0.06678690 -0.51215445 0.30279442
C -0.95424287 0.37092287 -0.44602854
N -0.33976472 1.36196735 -0.91272746
H -2.00675448 0.13013633 -0.54559772
H 1.34223274 2.06109601 0.10820372
H 1.68676569 1.15139873 -1.36928117
H 0.20310220 -2.23399006 1.39871772
H -1.55340127 -1.85932081 0.77992101
