10

O 0.82603395 0.9329594 -1.7087585
C -0.018074268 0.81254095 -0.6045057
C 0.20715111 -0.48888093 0.12190987
O 1.0228134 -1.30214 -0.25888693
C -0.61775935 -0.78538007 1.3642566
O -1.443587 -0.01897824 1.7878596
H 1.3517579 0.122156076 -1.746678
H 0.13694575 1.6341603 0.111698166
H -1.0783769 0.8568856 -0.8984967
H -0.38690463 -1.7633232 1.8316014
