11

C -0.10500986 -0.8498301 -0.31505847
O 0.54470724 0.85909665 0.923737
C -0.22726205 -0.3215969 1.1176325
C 0.45494607 0.9622555 -0.48394096
O -1.1406299 -1.1317848 -1.0803007
H 1.4287689 1.0681175 -0.9688099
H 0.86374885 -1.3468862 -0.5081798
H 0.20274006 -0.9581617 1.8968297
H -0.5139515 0.04343845 -1.1252881
H -0.22812322 1.7724538 -0.7928931
H -1.2799346 -0.09710232 1.3362718
