11

C -0.5246697 0.29414126 -0.98562765
O -0.393446 1.4541368 -0.15226203
C 0.16934404 0.6786612 0.91545165
C -0.19007982 -0.63260955 0.19619355
O 0.773935 -1.6315873 0.050013203
H 1.2553475 0.83488655 1.0131357
H 0.23399605 0.26689184 -1.7839845
H -0.31133386 0.88314307 1.878584
H -1.0691665 -1.1249405 0.61728024
H -1.5213584 0.21544108 -1.4345104
H 1.5774317 -1.2381648 -0.31427333
