11

C -1.306376 0.103981085 -0.78445023
O 0.07009127 -0.01146303 -1.0839845
C 0.81682944 -0.5296221 -0.018018343
C 1.0247061 0.4926621 1.0866365
O 1.2864848 0.20266369 2.2259643
H -1.745848 -0.87419647 -0.5400834
H -1.4865153 0.7905389 0.056362648
H -1.7943168 0.50310355 -1.6748147
H 1.8055357 -0.7783587 -0.42095742
H 0.38321224 -1.4479175 0.4058448
H 0.946196 1.5486083 0.74750024
