11

N 1.9585179 -0.44229624 -0.027038915
C -1.505939 0.3976564 0.081584476
C 0.621328 -0.14916533 -0.0862371
C -1.4029524 -0.4023212 -1.1053478
C -0.20547043 0.5848653 0.6983417
O -0.05764446 -0.76653177 -1.0919912
H 2.5292716 0.25721082 0.4213194
H 2.3409436 -0.7862517 -0.89594835
H 0.048369627 1.149027 1.5835066
H -2.40582 0.9512817 0.3233156
H -1.9206045 -0.79347485 0.09849575
