11

N -0.49752435 0.404072 -1.9394213
C 0.4691938 -0.42210197 1.4627217
C 1.6520565 0.258334 0.8131561
C -0.62212557 -0.4268258 0.4323973
C -0.1011803 0.14999355 -0.6480883
O 1.2304533 0.55355626 -0.4053982
H 0.79356647 -1.4211342 1.7869899
H 0.2284637 0.122629575 2.3860617
H -1.4956905 0.40444356 -2.0766978
H -0.0386772 1.2030038 -2.35537
H -1.6185359 -0.82597077 0.543649
