11

N 1.183183 -1.6548442 1.9426554
C -0.39106095 -0.31719214 -1.066306
C 0.77321154 0.6489763 0.74404365
O 0.62232244 0.4931826 -0.6544543
C -1.9059068 0.24556936 -0.28248826
C 1.0052563 -0.63373774 1.4358692
N -2.0590565 0.5002123 -1.4413173
H -0.4183337 -1.2942852 -0.58052224
H -0.12463208 1.1164302 1.165947
H -0.32084146 -0.4085787 -2.1447237
H 1.6358583 1.3042673 0.8812962
