11

N 2.7174332 -0.44511008 0.5677299
C -0.44989258 0.4312334 -1.0678263
C 1.6324065 -0.17113571 0.84853905
O -0.3360268 1.0181378 0.19612399
C 0.23502442 0.19090047 1.177477
C -2.0084689 -1.6467499 -0.93612635
N -1.3090184 -0.7112994 -1.0432926
H -0.34316608 -0.7311783 1.3186989
H 0.21778864 0.762024 2.1083405
H -0.8837056 1.1906577 -1.7179163
H 0.5276254 0.11252002 -1.451748
