11

N 1.39826497 -0.93420461 -0.07424595
C 0.10127991 -0.77573695 -0.43863436
C 2.18143196 -0.05196527 0.62743969
N 1.47505467 1.10817969 0.95589746
C -0.49729392 0.37826490 -0.01753361
N 0.22103891 1.28957608 0.68452957
N -1.80524094 0.74019331 -0.29364085
H -0.36845640 -1.53231517 -1.05774486
H -2.48822130 -0.00034459 -0.25405435
H 1.86541729 -1.78703487 -0.35139950
H -2.08327526 1.56538737 0.21938660
