11

N -0.42380774 -1.6480474 -1.065949
C -0.23544247 -0.4875254 -0.35686842
C 1.0136734 -0.1341392 0.20241669
N 1.1621823 1.0141364 0.8242154
C 0.06418536 1.7896936 0.8733739
N -1.1212506 1.4911476 0.37387055
N -1.2767861 0.3278372 -0.246454
H 0.17794026 -2.4293993 -0.8681856
H -1.3906522 -1.8811569 -1.2425425
H 1.8769392 -0.7939247 0.13401482
H 0.15301847 2.751378 1.372108
