11

N -1.6723874 -0.052167065 1.04566
C 1.7496669 0.89624685 -1.1359726
C -0.5127122 0.16095133 0.31923947
N 1.301755 -0.3932209 -0.99207205
C 0.20104137 -0.81345516 -0.31984156
N -0.1196566 1.4552042 0.22024629
N 0.9110143 1.803847 -0.48350537
H -1.9641036 0.7792981 1.5406477
H -1.6910052 -0.8817361 1.6182805
H 1.8647976 -1.091468 -1.4587613
H -0.06840992 -1.8635005 -0.353921
