17

C 2.2107885 -0.544941 0.22301255
N -1.2545947 0.58611864 -0.096413106
C 0.11186299 0.670821 0.07353014
O 0.6537666 1.7326922 0.34968457
N 0.80606383 -0.49983633 -0.12837285
C 0.18243563 -1.7376978 -0.55567116
C -2.055522 1.7550142 0.22699797
H -3.0780163 1.590544 -0.119275965
H 2.3889334 -1.2452348 1.0513496
H -0.2044618 -2.335817 0.2825172
H -2.0663736 1.983738 1.3009881
H -0.631874 -1.5300145 -1.2569836
H 2.814973 -0.8636951 -0.63513374
H 0.92741936 -2.3416479 -1.0829427
H -1.6412593 2.6223202 -0.29163954
H 2.517393 0.4552996 0.52668005
H -1.6815348 -0.2976636 0.13167253
