17

C -1.77350190 2.04370214 0.18640345
N -1.01675336 0.89877209 -0.29199275
C 0.12297592 0.54207279 0.39869140
O 0.56777181 1.24361036 1.29729748
N 0.72958441 -0.61910079 -0.02180859
C 1.80923443 -1.16728982 0.77355433
C 0.26634427 -1.40123693 -1.15206017
H -2.53496290 2.29910577 -0.55345924
H -2.25386913 1.86488563 1.15756725
H -1.09552846 2.89184218 0.30399866
H -1.57470602 0.14378316 -0.65812458
H -0.51022658 -2.13132753 -0.88021216
H 2.02781843 -0.46673442 1.57862866
H 1.52877684 -2.13857213 1.20511372
H 2.70876115 -1.30761770 0.16182081
H 1.11504487 -1.95333962 -1.56758594
H -0.11676423 -0.74255532 -1.93783245
