17

C -1.5303926 2.2403207 0.13702942
N -0.66263795 1.1770943 -0.3454379
C -0.11244413 0.31850752 0.59193724
O -0.22642261 0.5248242 1.7941936
N 0.60045004 -0.7428549 0.081675835
C 1.0448676 -1.7877535 0.98271513
C 0.8323549 -0.9405425 -1.3360195
H -2.46361 1.8638624 0.57628864
H -1.0056959 2.8059514 0.9108297
H -1.7652538 2.9111671 -0.69233316
H -0.9362107 0.7734696 -1.2293378
H 0.52930164 -2.7377307 0.7806219
H 0.8244797 -1.4711018 2.001336
H 2.1248815 -1.953894 0.88164914
H 0.99395 0.021667343 -1.8312678
H 1.7426851 -1.5347339 -1.4643483
H 0.009696777 -1.4682534 -1.8395323
