11

C -0.25420344 1.1993257 0.2423654
C 0.120485425 -0.26338747 -1.4522477
N -0.23331279 0.8409237 -1.6812779
C -0.35101128 -0.20611612 0.7283674
C 0.5057297 -1.1580218 -0.41564453
O 0.14233996 -0.07184854 1.9104563
H -1.3882452 -0.59749186 0.5913425
H 0.18743593 -2.1962914 -0.44191074
H 1.579639 -1.0522261 -0.23095651
H 0.7513901 1.6148988 0.26821256
H -1.0602474 1.890235 0.4812931
