11

C 0.5081849 -0.9654475 1.499234
C 0.16542247 -0.12299889 0.3209447
N 0.6356301 1.0348122 -0.006887312
C -0.032453798 1.3598974 -1.1807011
C -0.87805 0.3629308 -1.4984897
O -0.76381576 -0.60552186 -0.5410696
H -0.38573626 -1.199564 2.0863078
H 1.2135043 -0.41717148 2.1257463
H 0.9649862 -1.9114416 1.1928498
H 0.15307553 2.2890136 -1.7020899
H -1.5807476 0.17549106 -2.295845
