12

C 0.41135908 0.94941052 0.10253891
C -0.45940359 -0.17792988 -0.43272904
O -0.02853710 0.80781594 1.39813518
N 0.12146979 -1.29759732 -1.12220797
C -0.80391672 -0.37442058 1.05337491
N 1.27000203 1.71358161 -0.39349074
H 0.32802314 -1.04913513 -2.08167673
H -1.30361609 0.20757317 -1.01090521
H 1.00066237 -1.56399170 -0.68690969
H 1.67795311 2.31713475 0.32416156
H -0.36505197 -1.27043654 1.50117803
H -1.84894406 -0.26200485 1.34853032
