12

C 0.5587542 -0.64655143 -1.8511314
C -0.08136647 -0.741985 -0.48116338
O -0.6077193 -1.7438331 -0.052918624
N 0.009391198 0.42029473 0.26993212
C -0.4744727 0.53944504 1.5651965
N -0.34556627 1.6406063 2.1806068
H 0.13738099 -1.4258225 -2.4857733
H 0.39996567 0.3338045 -2.3132484
H 1.6386815 -0.81623155 -1.7588814
H 0.44771594 1.2454603 -0.11887128
H -0.93832403 -0.376563 1.933946
H -0.74444073 1.5713757 3.1123059
