11

N -0.9797967 -1.7068683 0.59576017
C -0.34612244 -0.5395658 0.15330602
C 0.9667032 -0.16211502 0.26928556
N 1.042342 1.0521253 -0.4007901
C -0.19426958 1.3236392 -0.8761514
N -1.0595673 0.39139748 -0.5568077
H -1.9829547 -1.598213 0.51617473
H -0.7301869 -1.9726009 1.5372747
H 1.8303039 -0.6208996 0.7253584
H 1.8656644 1.6166638 -0.5159747
H -0.4121157 2.2164366 -1.4474359
