11

N 0.34871597 -1.34528493 1.34157000
C -0.64458202 0.71847055 0.05175062
C 0.34014323 -0.38684700 0.38141853
N 1.16039625 -0.21600760 -0.60596020
C 0.32602705 0.94509792 -1.03696636
N -1.02508034 0.55581052 -1.36101400
H -1.05804019 -0.42258515 -1.64787069
H -0.19326581 -1.19936216 2.18035227
H 1.18902128 -1.89330353 1.42967009
H 0.76483041 1.85793487 -1.42626718
H -1.20816564 1.38607627 0.69331669
