10

O 1.8296623 -0.1606521 0.7772891
C 1.134234 -0.8113519 0.03275584
C -0.11681643 -0.2684969 -0.56004393
C -1.0606983 0.38898683 0.39307263
N -0.2897222 1.1817002 -0.53751135
H 1.3970863 -1.8504524 -0.24550642
H -0.5093425 -0.7843095 -1.4331323
H -2.126161 0.32881606 0.18928611
H -0.77353674 0.3932149 1.4430112
H 0.5152948 1.5825446 -0.059220817
