11

N -0.78317800 -0.67464275 1.29232556
C -0.94506181 -0.86875849 0.02711109
C -0.06468427 -0.02007881 -0.78772708
N 0.05836764 0.12556479 -2.04218445
N 0.08201005 0.35607648 1.49411874
C 0.75863031 0.72236707 0.24620289
H 0.61779329 0.24583705 2.34033673
H -1.66596449 -1.59067074 -0.33686709
H 1.79967557 0.37786955 0.22806378
H -0.59508907 -0.47680595 -2.54073554
H 0.73750076 1.80324156 0.07935492
