11

N -0.06651821 -1.6394224 0.1286504
C 0.20474891 -0.5754748 0.93255705
O 0.7902877 -0.6288998 1.9943904
C -0.24761502 0.74444586 0.36018574
C 0.253888 1.1949803 -0.94145435
O -1.0691488 0.6941687 -0.7998378
H -0.72511226 -1.5253154 -0.62574995
H 0.12814356 -2.5604513 0.48868132
H -0.52705264 1.4837077 1.1079031
H 0.32634106 2.262064 -1.1460727
H 0.9320378 0.5501973 -1.4992536
