12

N -0.99599856 1.2531679 -1.9185947
C 1.1306407 -0.30005044 1.3345777
N -0.31270057 1.3181201 0.34886464
C 0.3729287 -1.1525122 0.36272776
C 0.12541357 -0.9664571 1.8316642
C -0.51744413 0.6941221 -0.76355505
N -0.40012303 -0.6462809 -0.6947647
H -0.8037726 2.2309291 -2.061511
H 0.7394215 -2.1458166 0.0720706
H -0.88270885 0.65869653 -2.7245624
H -0.4327787 -1.2851508 2.6977005
H 1.9771218 0.34123245 1.515383
