12

N 0.88194289 -1.64784363 -0.69883604
C 1.04738206 1.26014833 0.24172981
N -1.03483985 -1.70414044 0.86284720
C -0.15669024 1.71963387 0.02334357
C -0.19816307 -1.34899861 -0.13954095
C 0.39829367 0.81862450 -1.01427412
N -0.19929949 -0.51171827 -1.22074154
H 0.72617435 1.19500575 -1.98619361
H 1.92662902 1.18904486 0.86379928
H -0.63341502 -2.23692845 1.61952497
H -1.76725010 -1.05591989 1.09916673
H -0.99076371 2.32309212 0.34917476
