12

N 2.169447 0.3895452 -0.6946708
C 0.8872881 0.16456771 -0.28193673
N 0.7037232 -0.8424 0.5864707
C -0.54265463 -1.0225928 1.0067661
C -1.6090018 -0.23694268 0.5873534
C -1.293234 0.7683574 -0.32102224
N -0.061382014 0.98248726 -0.76996404
H 2.2911515 0.9583456 -1.5168364
H 2.8340507 -0.34932345 -0.53075814
H -0.69499934 -1.8405441 1.7078254
H -2.6192017 -0.3988788 0.9404499
H -2.0651865 1.4273788 -0.7136771
