10

O 1.7493974 -1.1281658 1.0171512
C 0.80267346 -0.6094318 0.5031714
C 0.5078339 -0.08456535 -0.9305985
C -0.7216704 0.5819626 -0.31126454
O -1.5202023 -0.46679515 0.19738662
C -0.4725485 0.025109239 1.0336939
H 0.2964152 -0.81975365 -1.7101516
H 1.2953933 0.60029334 -1.2579854
H -1.2002423 1.5206405 -0.5641203
H -0.7370502 0.38070622 2.0227168
