10

O -1.4725633 1.7688161 -0.26127678
C 0.33796638 -0.64744717 1.4118813
C -0.7060359 -0.5423865 0.35877943
C 0.7152179 0.60234207 -0.73734355
O 0.6045362 -0.7934449 -0.29048413
C -0.6926431 0.86748934 -0.20042394
H -1.5000669 -1.2571658 0.13382947
H 0.8042998 0.62654907 -1.8274127
H 1.5459133 1.1013012 -0.2394078
H 0.36337557 -1.7260537 1.6518586
