10

O 0.56341839 -0.76201619 0.42578252
C 0.51442755 0.71551440 1.32295927
C 0.61571206 -0.30881873 -0.97136904
C -0.71301735 0.42120396 -0.76593448
O -1.49496120 0.98309938 -1.47106275
C -0.65457226 0.03982555 0.70095759
H 0.56605142 -1.17724248 -1.63480429
H 1.50243491 0.29965591 -1.14582900
H -1.47022144 -0.48079915 1.20658938
H 0.57072748 0.26957748 2.33271041
