11

N 1.6177162 -0.063969575 -0.29353398
C 0.47956175 0.18066859 -0.9918436
O 0.37038884 0.14388415 -2.200472
C -0.71780246 0.46545035 -0.114998646
C -1.1602576 -0.5205779 0.8742022
O -0.4672466 0.6541521 1.270612
H 1.6569023 0.18418732 0.68181944
H 2.475742 -0.17828448 -0.812029
H -1.4481084 1.1390074 -0.5597205
H -2.2114308 -0.5595994 1.1578491
H -0.59546524 -1.4449188 0.98811483
