10

N 0.22518381 1.769833 0.39365786
C -0.20075978 0.47948927 0.16404429
N -1.402183 0.047348958 0.3582676
O -1.335759 -1.3403093 0.1043309
C -0.07991803 -1.698444 -0.25957716
O 0.28535014 -2.8096342 -0.52038175
N 0.645566 -0.51472616 -0.25190103
H 0.7486021 2.176363 -0.3703901
H -0.535396 2.370115 0.68298054
H 1.6493138 -0.48003522 -0.30103126
