10

N 0.94410278 -1.65278637 -0.27563790
C 0.92514325 -0.36668260 0.22857309
O -1.87738565 1.71621062 0.13049282
C -0.55889392 1.54797455 0.32710054
O 1.85723784 0.15898510 0.77640598
N -0.33959699 0.24036317 0.06638370
H 1.87053677 -2.05298522 -0.31213181
H 0.35676532 -1.87806834 -1.06335772
H -2.05656296 2.64574667 0.31589231
H -1.12134641 -0.35875742 -0.19372094
