10

N 0.8243396 -1.5078033 -0.454341
C -0.20527662 -0.64608556 -0.36310887
O -1.333075 -0.8185822 -0.7833365
C 0.20553896 0.64561146 0.36378703
O 1.3322661 0.81719744 0.7854247
N -0.8247223 1.5074648 0.4537928
H 1.7133919 -1.2349237 -0.06239759
H 0.7016495 -2.3961344 -0.90932035
H -0.7011414 2.3958611 0.90947986
H -1.7129707 1.2373945 0.06001999
