10

N -0.22684471 0.06451981 0.34912178
C 0.8665837 -0.039043736 -0.53860945
O -1.450347 0.7655165 1.9487078
C -0.33608687 1.058894 1.2575259
O 1.8686062 0.61921674 -0.44977376
N 0.6628922 -1.0204958 -1.4893527
H 1.3549128 -1.0127939 -2.2247567
H -1.5450158 1.4635732 2.607699
H -0.2769125 -1.2154536 -1.7975383
H -0.9177878 -0.6839334 0.33697644
