10

N -0.28550708 0.40060946 0.05060406
C -0.6080962 1.0310996 1.1958295
O -1.5183038 1.9666724 1.059739
C 0.70475805 -0.60864294 -0.035101645
O 1.4282707 -0.90726167 0.8809663
N 0.7703355 -1.1654983 -1.2901398
H -1.0375242 1.7079235 2.130797
H -0.76437914 0.7421194 -0.78269476
H 1.3654828 -1.9794725 -1.3393105
H -0.055036888 -1.1875491 -1.8706888
