9

N 0.12168105 1.6158763 1.344363
C -0.3527026 0.8273582 0.47455263
N 0.40200293 -0.24651277 0.019261103
C 0.07774214 -1.1554725 -0.87081426
O 1.0583614 -1.9548584 -1.0001686
H 1.4540343 -1.0847484 -0.11054033
H -0.56007886 2.3440108 1.5543029
H -0.8528442 -1.2550472 -1.4303689
H -1.3481964 0.909394 0.019412491
