11

N -2.19229120 -0.21704371 -0.44975172
C 1.33754367 -0.04363395 0.71400466
C 0.02586897 0.00407696 -0.00287691
C -0.24422069 0.45603444 -1.24821343
C -1.26459630 -0.40881045 0.44666218
O -1.54909001 0.33432391 -1.53580034
H 1.32248641 0.57871129 1.61429169
H 0.37293041 0.88200691 -2.02787979
H 2.14165746 0.31944977 0.06752948
H -1.53716437 -0.83969189 1.40290517
H 1.58687590 -1.06542347 1.01912839
