10

O -0.81905514 -1.9467491 -2.4653988
C -0.05026272 -1.068569 -2.197521
C -0.21450432 0.03034146 1.2836279
N 0.55251837 -0.93451965 -0.9284663
O 0.76280713 2.1594217 0.8689342
C 0.13670309 -0.4745304 0.113877065
C 0.17695564 1.4123529 1.6173054
H -0.7736719 -0.58227915 1.9801682
H -0.10040977 1.727446 2.6442537
H 0.32891965 -0.32291517 -2.9167805
