10

O -2.3874116 0.95601195 0.4066902
C -1.7689335 -0.056942564 0.6274088
C -0.3575741 -0.22484712 0.2129235
N 0.2756027 -1.3423043 0.4640836
O 1.5378577 -1.1741215 -0.03418835
C 1.6380523 0.04880969 -0.57803625
C 0.47020385 0.7173917 -0.46213284
H -2.212707 -0.92340994 1.1521726
H 2.6030996 0.28946874 -1.0026078
H 0.20180969 1.7099435 -0.7863134
