10

N -1.3180248 -0.64306736 -1.1595827
C -1.2083436 -0.74730736 0.09094925
O -0.17756416 -0.21746747 0.7751056
C 0.7667359 0.47596398 -0.03277012
C 1.821154 0.98303753 0.8521034
N 2.6747644 1.4017247 1.5095332
H -2.1603494 -1.1112438 -1.4864793
H -1.8791704 -1.2517357 0.7921747
H 0.2841375 1.3054583 -0.5579389
H 1.1966606 -0.1953626 -0.78309476
