9

O -0.34753513 -0.394625 2.1248055
C -0.100306176 -0.16302529 -1.2816055
N -0.6455984 -0.8351683 -0.13432078
N 0.7156792 0.91901714 0.4520349
C -0.15181893 -0.17876455 0.8297096
N 0.7512934 0.9304884 -0.7925095
H -0.8780446 0.2719739 -1.9170923
H 0.14589013 0.27814037 2.6187685
H 0.51044047 -0.82803655 -1.8997903
