10

O 0.09430654 -1.7160623 -0.48555607
C -0.14469098 0.5978494 -0.96447355
C 0.04410773 -0.5894202 -0.040933434
O -0.250222 0.18923298 -2.2900815
C 0.16028127 -0.29915613 1.3809026
C 0.2553726 -0.025655167 2.5481198
H -0.16666764 -0.77842784 -2.2818446
H 0.34311986 0.20116931 3.588365
H -1.0438923 1.1417654 -0.63626283
H 0.7082848 1.2787044 -0.8182355
