10

O 0.9179175 1.5662364 0.37043563
C 0.684633 -0.57781076 -0.8078548
C -0.96886694 -0.009968441 0.6283191
N -0.31359646 -1.5946274 -0.7861729
N -1.2443073 -1.3046976 0.0024075008
C 0.3327477 0.40417445 0.032042276
H -0.9241816 -0.13653658 1.7149427
H 1.750211 1.6585641 -0.11348493
H -1.7865044 0.68343586 0.40512747
H 1.5519475 -0.68877006 -1.445762
