11

O 0.18797399 -1.9082892 1.1304685
C 0.026774103 -0.7652968 0.41514623
C -0.8780191 -0.3673687 -0.5368497
C -0.5015603 0.9659927 -0.90768737
C 0.5975985 1.3139932 -0.17695965
N 0.9158396 0.24154623 0.6362059
H -0.50524014 -2.523355 0.86532694
H -1.704046 -0.947467 -0.92209756
H -1.0044394 1.5836688 -1.6381216
H 1.1844828 2.2183259 -0.15502526
H 1.6806357 0.18825021 1.2895937
