11

O 0.08651621 2.5305243 0.14084949
C 0.402442 -0.96243995 0.46096295
C -0.783153 0.50620586 -0.91305554
C 0.018564964 1.3219917 0.05051513
C -0.5652484 -0.7858987 -0.6817201
N 0.6776464 0.4052982 0.83233875
H 1.3091009 -1.4938855 0.1415581
H -0.04624812 -1.5340006 1.2828554
H -1.4207119 0.9550722 -1.6620663
H -0.99698114 -1.6302394 -1.2083238
H 1.318072 0.687372 1.5560858
