14

C -1.115795 0.206524 2.0160437
N -1.1663135 0.50774056 0.601275
C -0.12052768 0.14147753 -0.21479172
O 0.75890124 -0.6627381 0.21358974
N 0.04054528 0.52665377 -1.4493629
C 1.667251 -0.7565733 -1.5562958
H 2.4820223 -1.0052065 -0.88184625
H -0.45887524 0.8860588 2.5744185
H 1.1405101 -1.6207523 -1.9429613
H -1.6666085 1.3349328 0.32091725
H 1.980814 -0.05490023 -2.3227785
H -2.123844 0.25713927 2.4361126
H -0.7351748 -0.8100054 2.140166
H -0.68290514 1.0496489 -1.9344864
