14

C 1.81282691 0.10790836 -1.02856658
N 1.12292575 -0.77485133 -0.10301240
C -0.16335879 -0.53549291 0.33032580
O -0.50500676 0.74767211 0.12220767
N -0.97144901 -1.35086626 0.88671021
C -1.78906567 1.12262138 0.60443431
H 1.36635950 0.11592733 -2.03103005
H 2.85181771 -0.22440468 -1.10499461
H 1.80924837 1.12787106 -0.64104741
H 1.33546281 -1.75523883 -0.19247944
H -0.55274488 -2.26930573 0.98940292
H -1.85566462 0.96654614 1.68584350
H -1.88601197 2.18170185 0.36388966
H -2.57533929 0.53991151 0.11831661
