14

C 1.9066168 -0.7502565 -0.39731905
N -1.7678066 -0.6146082 -0.22786938
C -1.126957 1.7358752 0.7369401
O -0.10095492 0.80861455 0.4061166
N 0.5388752 -1.2265573 -0.27773932
C -0.52534896 -0.3778491 -0.061582707
H 2.1692266 -0.15270455 0.4770239
H 2.5683148 -1.6203355 -0.4272081
H -1.7321433 1.9794024 -0.13971916
H -0.6049547 2.619331 1.1056286
H -1.9190891 -1.5598634 -0.5640185
H 0.3017084 -2.0235012 -0.84604234
H 2.0749936 -0.14318934 -1.2959008
H -1.782481 1.3256416 1.51169
