9

O 1.32600178 0.32851363 -1.71247432
C 0.50112210 0.14878454 -0.68962188
N -0.62152094 0.70620021 -0.50073329
N 0.00055505 -0.79183741 1.19610550
C -1.04675812 0.13951673 0.74948814
N 0.90543729 -0.77991420 0.34548162
H 2.10305723 -0.23404188 -1.56754227
H -1.18292352 0.89832028 1.52665470
H -1.98497064 -0.41554188 0.65264192
