10

O 0.19982505 0.00239820 2.23597281
C -0.54794671 -1.05688652 0.18033404
O 0.18611917 0.56774617 -1.24881709
C 0.07325237 -0.03435353 1.03518544
C -0.43044466 -0.61899522 -1.08317895
C 0.55851783 1.03642170 0.05067043
H -0.76038430 -1.08110623 -2.00839564
H -1.00312995 -1.97484981 0.52325953
H 1.64508714 1.15700991 0.08675460
H 0.07910407 2.00261596 0.22821504
