10

O 1.682758 -0.5470848 1.381497
C -0.66973716 -0.6307302 0.7767926
O -0.50926363 0.62443787 -1.1257211
C 0.75186974 -0.2727886 0.66214293
C -1.2879792 -0.07577438 -0.27763683
C 0.8283068 0.56220764 -0.6216992
H -2.3362517 -0.10466522 -0.5582126
H 1.4693505 0.091969445 -1.3729751
H -1.1092398 -1.2264215 1.5638349
H 1.1801867 1.5788496 -0.42802253
