12

O 1.007897 1.5044607 0.18672489
C -1.2009386 -0.5106884 0.0387435
C 0.26742604 -0.76624906 -0.3215479
O 0.6987077 -0.45842072 -1.610306
C 0.55269253 0.30654547 0.75641084
O -0.8136458 0.35366023 1.132048
H 1.2055175 0.055139992 1.5988641
H 0.6172959 -1.7671499 -0.056457732
H 0.9359343 0.484592 -1.5978793
H -1.752385 0.03489868 -0.73681897
H -1.7864681 -1.3638123 0.3934894
H 0.26796678 2.1270235 0.21672933
