12

O 0.87785640 0.32669328 -1.55372686
C 0.51832644 -0.50119599 -0.49212563
C 0.38842094 0.19123801 0.88552448
O 0.44687445 1.58769862 0.77048088
C -0.96599648 -0.82885498 -0.29052973
O -0.93161153 -0.29779463 1.05453591
H -0.45748004 1.91484550 0.87583417
H 0.79024777 1.23846701 -1.22708137
H -1.63331330 -0.24982926 -0.94066280
H 1.16707625 -1.38073801 -0.48842191
H 1.05157439 -0.11587727 1.70101228
H -1.25197557 -1.88465194 -0.29483975
