12

O 1.5664896 0.31278852 0.8776074
C -0.22866084 0.42041945 -0.7316023
C 1.0362561 -0.29007387 -0.16527504
O 0.032389205 -1.2445438 0.70142543
C -1.0999511 -0.50238097 0.12893155
O -0.25221783 1.7696321 -0.38633463
H 0.4030638 1.852333 0.3300258
H -0.38229558 0.3120192 -1.8099208
H 0.65678287 -0.52267414 1.3839382
H -1.7257596 -1.2036971 -0.42344224
H 1.6651233 -0.90784854 -0.8164083
H -1.6712197 0.0040262127 0.911055
