10

N -1.7060097 0.17629845 1.4751313
C -0.7502154 0.056854613 0.65035015
C -0.3651811 -0.9620078 -0.25910017
N 0.7596088 -0.4960199 -0.91091645
C 1.101165 0.68503 -0.47450995
O 0.26236156 1.0872935 0.46159267
H 1.2632931 -0.9988132 -1.624224
H -1.6665899 1.0613045 1.9720699
H 1.937746 1.2864572 -0.7890686
H -0.8361785 -1.8963972 -0.5013248
