17

C 1.6652502 -1.3248373 -0.7770047
N 0.60718596 -0.36210948 -0.5405418
C -1.9229447 0.8312479 2.1815107
O 0.7074366 -0.6580593 1.7232618
N -0.65252143 0.98520446 0.91596323
C 0.020763185 0.28449014 -1.7035389
C 0.26952907 -0.07130539 0.753191
H 0.14157097 -0.3824524 -2.560796
H 0.5067861 1.2412846 -1.9412403
H 1.298425 -2.1545794 -1.391226
H -1.6697255 -0.17983682 2.5045955
H -2.79352 0.80299234 1.5192152
H 2.5112855 -0.85115814 -1.2916802
H -0.9289637 1.5481577 0.12287552
H -1.0545906 0.4517933 -1.5756644
H -0.7057011 1.5456111 1.8736877
H 1.9997349 -1.706443 0.18739213
