17

C -2.4823377 -0.9270011 0.5974389
N -1.3231102 -0.42295688 -0.117198154
C -0.26435247 0.07024554 0.624357
O -0.34334525 0.21839221 1.8379223
N 0.85761034 0.4189381 -0.095467016
C 2.0662987 0.7617251 0.6260471
C 0.9355578 0.34859854 -1.540957
H -2.2661111 -1.8339349 1.1778824
H -2.8322062 -0.16165024 1.2941675
H -3.2777846 -1.1410797 -0.11982126
H -1.0880502 -0.93313307 -0.954693
H 2.8545303 0.013353027 0.46168143
H 1.8286022 0.8034279 1.6886194
H 2.4479785 1.7378844 0.30248183
H -0.020686476 0.6400815 -1.985722
H 1.6943578 1.0568324 -1.8885698
H 1.2130492 -0.6497229 -1.90817
