10

O -0.61816475 -0.45644448 1.74790774
C -0.10820564 0.28583777 0.68288792
C 0.82352540 -0.47361239 -0.20079265
C 0.38006303 -0.27332024 -1.43918728
N -0.83764304 0.50071666 -1.41920781
N -1.15025270 0.76813173 -0.24090650
H 0.39689046 1.21192325 1.01492898
H 1.69751427 -1.01444513 0.13200688
H 0.77110604 -0.59617477 -2.39479679
H -1.35483310 0.04738765 2.11715933
