10

O -1.5542393 -0.040020537 -1.3102049
C 1.310151 -0.20135577 0.67529917
C 0.8142204 0.00042018015 -0.5946182
C -0.577335 0.07440014 -0.3861735
N 0.33664957 -0.23936604 1.6154133
N -0.8365081 -0.12177208 1.0097846
H -2.3660798 -0.30302402 -0.8537623
H 1.3328784 0.07694805 -1.5377197
H -0.80428034 1.0500478 0.40158686
H 2.3445435 -0.29627764 0.9803944
