11

C -1.1457667 -0.3130769 0.7044316
N -0.05913205 0.6566714 0.63876665
C 1.1051303 0.18518913 -0.07966375
C 0.8324184 -0.17075785 -1.4957672
N 0.5550615 -0.4187393 -2.588705
H -1.5106419 -0.6415855 -0.28034997
H -1.979405 0.12591733 1.2595972
H -0.80344766 -1.1950228 1.2569625
H -0.38796958 1.5184594 0.2192412
H 1.8852711 0.95300686 -0.060350306
H 1.5084815 -0.7000617 0.42583725
