10

O -0.56515336 -1.878734 -0.7864276
C 0.21276383 -0.988588 -0.04639574
C -0.3164629 0.42114824 -0.14838628
O -1.2942892 0.69075274 -0.81337523
C 0.40312338 1.5248787 0.60967094
O 1.3749937 1.3146787 1.2869406
H -1.2604336 -1.355977 -1.2079729
H 0.23720868 -1.2696519 1.0171152
H 1.2581019 -0.98708504 -0.39215025
H -0.04985229 2.5285776 0.48098126
