10

O 1.0754683 -0.8867267 0.22847548
C -0.32688364 -1.0943553 0.36827967
C 0.61544925 0.4459914 0.49087054
O -0.41029572 -0.068574116 1.351238
C -0.19700444 0.7215872 -0.7871418
O -0.902792 -0.5445881 -0.7864634
H 0.41488546 0.814235 -1.687523
H 1.3279105 1.1511558 0.9164767
H -0.90181094 1.5516636 -0.6947673
H -0.69492674 -2.090389 0.60055506
