11

C -0.60559815 -0.08689143 1.665287
N -0.74156356 0.51047206 0.33768386
C 0.113359764 0.35499117 -0.6509306
O 1.1626079 -0.39008358 -0.48441374
C 1.0218606 -0.2277116 -2.004461
O 0.6112774 -1.1007279 -2.7131183
H -1.5552156 1.0760479 0.14769782
H -1.5178224 -0.63310623 1.9154447
H -0.42274153 0.685942 2.4150932
H 1.6974487 0.5927764 -2.27404
H 0.23638684 -0.7817087 1.645757
