11

C -1.39992269 1.19618956 0.17635566
N 0.59557933 -0.55980258 -0.04742320
C 0.68850943 0.52011757 -0.87395832
O -0.30700322 1.37058460 -0.74307868
C 1.61069371 -1.51853022 -0.09320528
O 1.61108550 -2.49786278 0.60609172
H 2.38761916 -1.26701090 -0.83166438
H -1.96778727 0.28865992 -0.05976713
H -2.03258772 2.06851973 0.03102619
H -0.14304572 -0.76956802 0.62270438
H -1.04314043 1.16870307 1.21291901
