11

C -0.06261523 0.9832544 -0.7332536
N 0.3322083 -0.32016507 -0.6763687
C 0.92229384 -0.8838345 -1.8102945
O -0.590986 1.4228388 0.38882437
C -0.74833095 0.6214225 1.5734005
O 1.3056856 -2.0239983 -1.844147
H 0.2500996 -0.9620823 0.11093042
H 0.988568 -0.1680951 -2.644274
H 0.22276321 0.27732304 1.9490125
H -1.4116197 -0.23046584 1.3832204
H -1.2080668 1.2838025 2.3029492
