11

C -0.6133547 0.41910324 -1.4834968
N -1.0635215 -0.6035134 -0.82410014
C -0.41917235 -1.2353836 0.11723278
O 0.88480884 -0.87369126 0.51998144
C 1.0978501 0.23988669 1.1097409
O 0.21562195 1.1691896 1.3487942
H 2.1033597 0.42843378 1.4590799
H 0.4144353 0.7767622 -1.4132038
H -1.2628615 0.8688515 -2.2319872
H -0.7468713 -2.1750042 0.52848065
H -0.61029446 0.98536533 0.86947834
