11

C -0.41157991 -0.29515944 1.20793399
N -1.40140093 -0.28575316 0.35898208
C 1.55115582 0.28615738 0.07984219
O 1.06656165 1.37921814 -0.43925660
C -1.29419948 -0.48318599 -0.91879999
O 0.92182118 -0.54627414 0.81757813
H 0.10022261 1.40639151 -0.33378888
H -0.54983199 -0.29374905 2.27577417
H -0.37498263 -0.81542546 -1.40240171
H 2.59138729 0.07511893 -0.12514209
H -2.19915383 -0.42733891 -1.52072124
