12

N 0.872747 0.067909 -1.0251324
C -0.54673654 0.8107993 0.6335867
N -0.55077493 -0.4644436 0.7410032
C 0.3503092 1.3005775 -0.47202906
O -1.2414064 1.6442491 1.3950852
C 0.34379926 -0.8510216 -0.2919296
N 0.61146396 -2.1840324 -0.40869778
H 1.0557549 -2.460148 -1.268693
H -1.7380453 1.1131437 2.0368292
H -0.09638354 -2.8033478 -0.046807785
H -0.20870008 1.8824323 -1.2136786
H 1.1479726 1.9438827 -0.07953624
