10

C 0.7680364 0.75145745 -0.5392792
C 1.2397214 -0.1145606 0.3881556
N -0.5471598 0.49651217 -0.93041795
C 0.05297106 -0.9521221 0.30207223
N -1.0627184 -0.64482474 1.0311259
C -1.4392408 0.17896256 0.09603819
H 1.2922431 1.5811282 -1.0144204
H -2.436165 0.6196572 0.07628221
H 2.115215 -0.14848985 1.0183609
H 0.017096847 -1.7677205 -0.4279175
