11

C -0.035564892 0.33743832 -0.5177054
C 1.7550802 -0.45723188 1.0365343
C -1.5476439 0.47174317 -0.6327761
C 0.42765775 -0.5982227 0.46387705
N 2.514835 0.088505976 0.21556373
O 0.7105884 1.0497783 -1.1785223
H -0.1289776 -1.507119 0.6800024
H -1.8219388 0.42972267 -1.6892884
H -1.8356264 1.45694 -0.25249678
H 2.0584843 -0.9780158 1.9516627
H -2.0968938 -0.293539 -0.07685103
