11

C -0.0047900546 -1.7182858 -0.14006338
C -0.27976918 0.76024157 0.41917747
C 0.19770539 2.1263115 0.30888557
C 0.22527562 -0.27892762 -0.53785616
N -0.9231867 1.9903586 -0.21704221
O 0.78127366 0.049133305 -1.5636791
H 0.9545008 2.8780284 0.49343175
H 0.43087423 -1.9237313 0.84254175
H -0.7355073 0.41080722 1.3457881
H 0.43348256 -2.3815112 -0.8867241
H -1.0798589 -1.9124246 -0.06445951
