10

C -0.9330707 0.37963217 2.3670378
C -0.47573733 0.21334535 1.2657205
C 0.06376262 0.00875665 -0.03557501
C 1.3402528 0.12096871 -0.54914474
N 1.3064295 -0.19924957 -1.867267
N 0.0924425 -0.50263685 -2.20114
N -0.6658609 -0.3813794 -1.1106442
H -1.3288939 0.52807295 3.3490884
H 2.2552702 0.40650028 -0.05347746
H -1.6545948 -0.5740104 -1.1645985
