11

O 0.6845264 1.6527666 -0.5685892
C -0.62430155 -0.20701697 -1.1825554
C -1.0058858 -0.6779421 0.03857972
C 0.6466964 0.39054665 -0.8559461
C 0.059171584 -0.4057422 0.9894435
N 1.2455943 -0.32840118 0.17387436
H -1.2384652 0.016267251 -2.0432532
H 1.9713559 0.24283329 0.5919362
H 0.10237351 -0.9301714 1.9434716
H 0.1406378 1.3058782 0.59780204
H -1.9817033 -1.059018 0.31523648
