11

O -0.8971469 2.1331108 -0.46992764
C -0.51143813 1.0162932 -0.2842729
C 0.44046947 0.07983561 -1.0082821
N -0.059595708 -1.0160892 -0.13683864
C 1.5283463 -0.3527028 -0.104566775
C -0.88427514 -0.10187123 0.7089707
H -1.9461435 -0.357466 0.65823615
H -0.5545054 -0.03143027 1.7489182
H 0.8570823 -1.5828185 0.15165941
H 1.5389044 0.23224099 0.8262281
H 0.48830256 -0.019102437 -2.0901246
