11

O 1.4681851 1.2737404 1.5122439
C 0.70760846 -0.8689485 0.42047516
C 0.78387296 0.6353582 0.76988834
N -0.34404004 -0.5181378 -0.5761764
C -0.27811205 0.9311303 -0.25334865
C -1.5177517 0.14157419 0.17511964
H 0.335854 -1.5497807 1.1859481
H -2.2557516 0.34988564 -0.6203608
H -0.31839037 -0.852131 -1.531963
H -0.21197169 1.6852722 -1.0348028
H 1.6304971 -1.227963 -0.047023423
