11

O -0.56949513 -1.09510740 2.13102764
C -0.99604680 1.01077110 -0.58353487
C 0.12824035 -1.15362183 -0.29204742
N 0.33899374 0.25433271 -0.73430762
C -0.26854945 -0.58906596 1.09167184
C -0.03600833 0.81041859 0.59199710
H -0.64315605 -1.65536884 -0.87589691
H 1.06003429 -1.72722171 -0.24830945
H 1.17797929 0.55106286 -1.21782789
H 0.57281794 1.56569321 1.08460846
H -0.76481000 2.02810696 -0.94738090
