11

O 1.4948885 -0.41798502 -1.6687663
N 0.45238227 -0.99195826 -0.90879875
C -1.1653231 -0.049607318 0.9980715
C 0.25088078 1.1785759 0.4117954
O -0.7488552 1.2859515 1.3779582
C -0.061079845 -0.042431004 -0.027774075
H 2.2836857 -0.84537405 -1.3146869
H -1.0525725 -0.7500197 1.8319825
H 0.9765681 1.9647232 0.2625379
H -2.1967406 -0.03952879 0.6323382
H -0.233834 -1.2923462 -1.5946578
