11

N 1.1213081 -0.1359839 -2.6785054
C -1.1426823 0.9323979 1.2638872
C 0.9124644 -0.38917503 -0.14831361
N 0.20029032 -1.0026282 0.777919
C 0.97603506 -0.32935324 -1.461314
C -0.7107538 -0.45409736 1.5043646
O -0.7408694 1.5644343 0.30804807
H 1.668756 -1.2535181 -0.8786695
H 0.69495225 0.7256761 -3.0017679
H -1.8394636 1.3776617 1.9978694
H -1.1400368 -1.035414 2.316482
