11

N 0.4292841 0.74652773 -1.0708407
C -0.3216939 0.27183774 -0.12718688
C 1.5124037 -0.8250073 0.08401828
N -2.421144 0.19386025 1.1210021
C 1.6184516 0.044858597 -0.9460562
C -1.6963364 0.66765195 0.19415817
O 0.26823828 -0.6920275 0.6222042
H -2.0882008 1.4540296 -0.4554017
H -1.9185787 -0.5263938 1.6411405
H 2.4558916 0.21896574 -1.605316
H 2.1616848 -1.5543027 0.5422785
