9

O 0.08999181 0.028993279 -1.309064
C 0.26685745 -1.2409707 -0.5484682
N 0.009744247 -0.968504 0.75591433
C -0.27437606 0.4762013 0.81847864
C -0.24906081 0.97176737 -0.47533694
O 0.5662444 -2.2271895 -1.1533426
H 0.8270497 0.10253745 1.090742
H -0.7746167 0.895619 1.6810634
H -0.461834 1.961546 -0.8599868
