10

O 0.7046863 -0.8293368 -1.6727376
C -0.08811581 0.04045838 -1.3910998
C -0.17993869 0.60905635 -0.018471953
N 0.93413347 0.33135378 0.8814701
C -0.30228516 -0.38429388 1.0936948
H 1.5888807 -0.26678714 0.37866336
H -0.86448145 -0.10313471 1.9803956
H -0.3480854 -1.4342781 0.81004035
H -0.65351665 1.5834603 0.07974024
H -0.7912773 0.45350185 -2.1416948
