14

C 0.696448 0.14684351 0.19234757
N -0.66529226 0.25022846 0.3075881
C 0.6415318 -1.7920567 -1.1032027
O 1.3363519 1.1275165 0.8615566
N 1.3722918 -0.7469392 -0.41640157
C -1.3244183 1.4399431 0.80659056
H -0.0034341938 -2.3745067 -0.42749482
H -2.3761992 1.2053738 0.98353404
H 0.006843581 -1.4062185 -1.9189324
H -1.2620248 2.287135 0.11071346
H -0.8753623 1.741994 1.7556595
H -1.1797323 -0.3122136 -0.350415
H 1.3567193 -2.4856424 -1.5513834
H 2.2762768 0.9185429 0.74983996
