14

C 1.70098193 -1.15915703 -0.77659631
N 1.44763357 0.26300740 -0.67057980
C 0.36524849 0.63163071 -0.10600272
O 0.09833165 1.94646502 0.03185006
N -0.61293880 -0.15203582 0.44836336
C -1.91013992 0.36468200 0.83455432
H 0.94731453 -1.68439531 -1.38751807
H 2.66932740 -1.30930571 -1.25948621
H 0.87412260 2.38826102 -0.34573978
H 1.74055884 -1.65830746 0.20375709
H -0.57282398 -1.11980010 0.17308022
H -2.42713576 -0.39844381 1.42015582
H -1.78457074 1.25145113 1.46024657
H -2.53591022 0.63594780 -0.02608405
