12

N -0.20252226 0.72453475 -0.99934137
C 1.7180502 -0.07983822 0.18454625
N -2.2871647 0.010608102 -0.31708357
C 0.84862167 -0.76347345 1.0270998
C 1.1122056 0.66233504 -0.82600456
C -0.93867254 0.006350752 -0.12936267
N -0.47086486 -0.7339988 0.89405745
H 1.2330261 -1.3610119 1.8519303
H 1.7145519 1.2366636 -1.5280709
H -2.6613557 0.7305773 -0.9143863
H -2.8577378 -0.31487915 0.44693738
H 2.7918622 -0.11786799 0.30967844
