9

O 0.8163342 -1.6744347 -0.762059
C 0.27076897 -0.56127495 -0.24811347
N -0.30835938 -0.5124591 0.9406306
N -0.69083124 0.7579794 1.0220891
N -0.40834904 1.5254499 -0.0064485557
C 0.21374945 0.70628136 -0.84891963
H 0.69835967 -2.388746 -0.122646034
H -1.1720345 1.1104699 1.833182
H 0.5803617 1.0367345 -1.8077147
