9

O -2.5736141 0.6755782 0.29171446
C -1.6281139 0.09862897 0.7627882
C -0.30080375 0.04742132 0.094025575
N 0.76157326 -0.54814446 0.5437733
C 1.6586679 -0.28063783 -0.4545414
N 1.1850086 0.42305169 -1.4411654
O -0.13015653 0.64489704 -1.0783786
H -1.6592933 -0.4414309 1.7252749
H 2.6867318 -0.619364 -0.443491
