11

N -0.99170685 1.1230747 2.158107
C 0.3655648 0.36548087 -1.628132
C 0.52458256 -0.63201505 -0.56377685
C -0.68783176 0.20166449 1.4091836
C -0.45972884 -0.7659517 0.5431391
O 1.3153487 0.54353154 -0.5814524
H -0.998282 -1.701071 0.6459005
H -0.48610824 1.0425324 -1.5877166
H 0.7888199 0.18607236 -2.6150732
H -0.44528455 1.1811037 3.0174673
H 1.0746261 -1.5444221 -0.7976468
