11

N 1.3479121 0.56567717 1.8377985
C 0.6410658 0.26425532 0.8348803
C -0.76669556 -0.18031229 0.8545359
C -1.1574788 -0.39581823 -0.39676136
C -0.014692912 -0.10564369 -1.3245466
O 1.0560261 0.29810777 -0.4686478
H 2.284969 0.84461683 1.5537989
H -1.3271412 -0.28641406 1.7745922
H -2.1309083 -0.7258163 -0.7416685
H -0.23457117 0.70631266 -2.0266893
H 0.30151466 -0.98496526 -1.8972918
