10

N -1.6872541 0.9305015 0.7528565
C 1.274555 -0.22657242 -0.6815004
O 0.07173685 -0.15863328 -0.02727005
C -0.49288344 1.0980061 0.12692894
O -0.022488957 2.1387181 -0.22321925
N 1.5779712 -1.5191011 -0.68606454
H -1.9469472 0.028388252 1.1134418
H 0.99011 -2.2366815 -0.27143988
H -2.2010458 1.7538648 1.0200315
H 2.4362466 -1.8084902 -1.1237646
