10

N -0.69077855 -1.8307061 -0.6582198
C 0.8103252 0.6451014 0.33844012
O 0.21201342 0.17902239 -1.0223473
C -0.1266544 -0.73704815 -0.16092888
O 1.9893614 0.52233464 0.54114956
N -0.04760175 1.5621632 0.921237
H 0.46020594 2.3012574 1.3868445
H -1.0133436 -2.5575304 -0.0423332
H -0.7694578 -1.9605821 -1.6621269
H -0.82407004 1.8759876 0.35828486
