11

N -1.1835537 -0.8381184 -0.6033497
C 1.1794279 -0.003713497 0.94059926
C -0.77177846 0.36992836 -0.13747922
C 0.0539908 1.1055421 -1.0829598
C 0.7693441 0.08330147 -0.4729683
N 0.3290292 0.31302676 1.8521498
O -0.8563539 0.674042 1.2363931
H 0.19017194 -1.0714813 -0.90979815
H -1.712393 -1.3787662 0.08096941
H -0.16404502 1.0792621 -2.150068
H 2.16616 -0.3330236 1.2465118
