11

N 0.35976416 0.30613106 -1.90938323
C 0.14643941 0.10897661 -0.60053948
C -1.07239804 -0.24659042 -0.00971126
C -1.19739618 -0.42714540 1.35882046
C 0.10124747 -0.19599614 1.99622835
N 1.24621353 0.12825743 1.48966486
O 1.24467707 0.29048121 0.10096262
H 1.28693631 0.53618613 -2.24449219
H -0.38645426 0.17831123 -2.57113936
H -1.91646570 -0.37832114 -0.68663918
H 0.18743613 -0.30029057 3.07622790
