11

N 0.9663871 0.46519276 -2.1392732
C 0.5762622 0.24016914 -0.9569417
C -0.80134004 -0.11898607 -0.6445617
C -1.1486434 -0.34159803 0.6264489
C -0.123596914 -0.20866404 1.6404072
N 1.0982596 0.10608379 1.4165823
O 1.462454 0.33213115 0.10157179
H 1.9577593 0.7022473 -2.165551
H -1.482007 -0.18629153 -1.4840112
H -2.1581857 -0.6128052 0.9169898
H -0.34734926 -0.37747926 2.6883383
