11

N -0.8324112 -1.4940548 -0.24739785
C 0.34339067 0.54287666 -0.60300875
C -0.09289524 -0.012195171 1.541661
N 0.73810506 1.1412992 -1.6769401
C -0.32333592 -0.68390197 -1.1168714
C -0.69397813 -1.1185405 1.0978116
O 0.4770574 0.90356 0.6506767
H 1.2342486 2.0242286 -1.734619
H 0.03260991 0.31227303 2.5635333
H -1.1219516 -1.8003283 1.8274174
H 0.23916045 0.18478298 -2.3022625
