11

N -0.26378274 2.309681 -0.47467777
C 0.13940105 -1.824643 0.8387868
C -0.11465374 0.2639327 0.5130025
N -0.12678671 -0.63208884 1.4696265
C 0.30662483 -1.6186408 -0.4979304
C -0.330365 1.6502404 0.67770696
O 0.15403621 -0.3074299 -0.7501586
H 0.5264715 -2.2613585 -1.3387938
H -0.072772294 1.8736079 -1.3722438
H 0.18887411 -2.7569864 1.3825387
H -0.40704718 3.3036854 -0.4478573
