11

N -1.4155164 0.65550244 -1.2292622
C 2.2456355 0.3477976 1.4978068
C -0.17304663 -1.3748024 -0.5044753
N 0.5626832 1.0231354 -0.086508386
C -0.42341608 0.026582718 -0.44597012
N 1.3505939 0.67597896 0.7927092
N -0.76882654 -1.0299218 0.56688714
H 2.3581142 0.39040968 2.5668046
H 0.18779637 -2.2878466 -0.9577716
H -2.2087433 0.045831066 -1.3888773
H -1.715274 1.5273324 -0.81134295
