10

O 1.85695233 -0.78250835 1.13780573
C 0.89786622 -0.44530986 0.51217124
C 0.47477618 -0.52393921 -0.95626319
C -0.54238193 1.48443766 0.15251744
O -0.86211405 -0.05042507 -0.57367100
C -0.44764806 0.15943550 0.83621858
H 0.39703996 -1.53803429 -1.35806825
H 0.94202372 0.17113411 -1.65312016
H -1.59949818 1.77530240 0.30697389
H -1.11701616 -0.25009284 1.59543568
