10

O 1.7498153 -1.1318018 1.0122061
C 0.8028293 -0.6098626 0.5020768
C 0.507333 -0.08441149 -0.9299381
C -0.7224525 0.58430374 -0.30989224
O -1.520449 -0.4654948 0.2000087
C -0.4721603 0.026706787 1.0331028
H 0.29537913 -0.8231302 -1.7059869
H 1.2943162 0.59875494 -1.2595658
H -1.1994253 1.5220405 -0.5651409
H -0.7351858 0.38289496 2.0231295
