9

N 0.45263834 -1.28600384 2.23868539
C 0.46551637 -0.47359873 1.41741048
O -1.20006574 -0.84369995 -0.79976295
C 0.51042176 0.55034805 0.38643837
O 0.73228873 0.07357500 -0.90871031
C -0.12735101 -0.71443635 -1.56666512
N 0.47043230 1.76808353 0.67355107
H -1.82777163 -1.41070849 -1.26837144
H 0.52389080 2.33644123 -0.17257562
