9

N -0.13846609 -0.17899817 -1.9364616
C 1.2023913 0.5942875 1.0872694
O 0.76735634 -0.6307278 1.3434861
C -1.5639457 0.0125372 -0.063012265
O 0.6383349 0.9776075 -0.06501228
C -0.30322853 0.2120847 -0.75882834
N -2.5734932 -0.12626253 0.48123848
H 0.7996181 0.056080103 -2.2628891
H 1.1714327 -0.9166084 2.1742098
