9

O 0.5661395 0.6110611 1.8323545
C 0.95296484 -0.5052538 -0.32140377
N -0.94486994 -0.13312799 -1.0907369
N -1.021343 0.43713623 0.10667303
N 0.19908199 -0.70550966 -1.3991616
C 0.18104538 0.20850144 0.61195064
H -0.17674139 1.0730131 2.2439334
H -1.7254965 -0.124462694 -1.7273707
H 1.9692191 -0.86135775 -0.25623876
