9

C -0.36769736 0.14808865 0.040578917
C 0.47317398 -0.87826663 -0.51083183
C 1.1893349 -1.7298394 -0.9638427
C 0.115635544 1.1520178 0.7784411
O -1.6798193 -0.02933232 -0.2750292
H -2.1955194 0.68057597 0.12341815
H -0.5367657 1.9197679 1.1853808
H 1.1753477 1.2216964 0.9868205
H 1.8263097 -2.4847083 -1.3649358
