9

C 0.80448896 0.4911138 0.14472291
C 0.90293074 -0.68505365 0.8311621
C 0.27644992 1.4324062 -0.51807547
C -0.93623096 0.73320675 -0.95389766
O -1.4157437 -0.299058 -0.40180427
H -1.4850678 1.1059842 -1.8231741
H 1.7083685 -1.3760353 0.59048194
H -0.480657 -0.76278096 0.24689038
H 0.6254617 -0.63978326 1.883694
