9

C 0.77556986 0.11996391 -1.6554589
C 0.15148151 0.022638777 -0.33489582
C -0.34953636 -0.045261126 0.7594146
C -0.97253174 -0.150695 2.0679882
O -0.65618634 0.516671 3.0260105
H 0.81101286 1.161739 -1.9852428
H 0.21996465 -0.4619051 -2.3979342
H 1.8015271 -0.2597766 -1.6161802
H -1.7813016 -0.90337485 2.1362987
