9

O -1.732394 -0.43449503 0.23834565
C 0.28724793 0.33145028 -0.2067225
C 0.33532467 -0.867053 0.5588664
O 1.2925681 1.1018087 -0.6792503
C -1.039188 0.5475343 -0.3721576
N -0.86798805 -1.314367 0.817296
H -1.613295 1.3140798 -0.8683496
H 2.140414 0.73376083 -0.4104048
H 1.1973103 -1.4127187 0.9223766
