12

N -2.9670825 -0.5967843 0.35310715
C 1.3459265 -0.21561912 0.7289709
C -1.924543 -0.17785902 0.047361404
C 0.28957564 -0.33705062 -1.2280618
N 1.4092959 -0.7943558 -0.38532197
C -0.6959331 0.41383553 -0.33694607
N 0.2234913 0.67504114 0.9232683
H 2.0732613 -0.31508386 1.5298653
H -0.058820307 1.5695505 0.28442305
H -0.17261496 -1.1920877 -1.7318712
H 0.7220985 0.30493915 -2.0074606
H -0.24465518 0.665474 1.8226655
