12

N -2.2534306 1.845355 -0.80707383
C -0.34743172 0.7052104 0.49365562
C -1.3985276 1.2958993 -0.23349272
C 0.9287308 -0.91998523 -0.65977
N 0.20497766 -1.6060532 0.08435328
C -0.513124 -0.69492555 1.0217111
N 0.8641102 0.5544938 -0.39792
H 0.7778112 1.1148074 -1.253364
H -1.5593845 -1.0016437 1.0922927
H -0.047377735 -0.86960226 2.0024097
H 1.6219927 -1.289129 -1.4111522
H 1.7216535 0.865573 0.06835066
