11

O -2.3886328 -0.16103697 0.30575842
C -0.6356238 0.7318564 -1.1960684
N -0.08290529 -0.4139215 0.85242563
C -1.0906183 -0.071243055 -0.07894786
O 2.2221348 0.0063497922 0.7422147
C 0.9693956 0.08146743 0.2974424
N 0.7219145 0.72143054 -0.8889733
H 1.4419672 1.0902908 -1.4899473
H -0.93014926 -0.69430214 -1.1408825
H 2.1975176 -0.47033098 1.5851007
H -2.4250004 -0.82056016 1.0118775
