11

O -2.15737391 -0.20704401 0.88396477
C -0.94101653 -0.17099220 0.35244446
N 0.12782920 0.00317471 1.28564690
C 1.31389609 0.06003368 0.70762246
O 1.50562019 0.64334776 -1.68176975
C 0.91183658 -0.20377191 -0.75409195
N -0.56448503 -0.24630546 -0.84914747
H -0.04039581 0.11475774 2.27615209
H 1.35718972 1.55346025 -1.39254618
H 1.27659924 -1.21459109 -0.99222884
H -2.78969950 -0.33206906 0.16395323
