11

O -1.5708226 0.059544288 1.8023959
C -0.70053047 0.016469283 0.78303194
N 0.39674884 0.7133328 0.66413516
C 0.92022276 0.3006414 -0.53940886
O 2.078362 0.8171781 -0.99831516
C 0.142182 -0.63969517 -1.1436093
N -0.92596877 -0.8123777 -0.2506704
H -1.2213438 0.70612013 2.4301555
H 2.368549 1.4527645 -0.33054692
H 0.22525238 -1.1831636 -2.0696802
H -1.7126511 -1.4308136 -0.34748793
