11

C -0.05690994 -0.43332878 -0.26311243
C -1.0527819 0.72354263 -0.14654642
O -0.37925684 -1.4687625 0.6188717
C 1.3460753 0.06685841 0.0038790621
O 2.0292227 -0.3899519 0.88886255
H -0.8290815 1.5190297 -0.8657711
H -1.0314399 1.1398962 0.8660806
H -0.06638651 -0.8045593 -1.3021554
H 0.39257395 -1.5865316 1.1958182
H 1.7105361 0.88083017 -0.65355164
H -2.0625515 0.3529769 -0.34237513
