11

C -0.94475357 0.74290065 -0.45703261
C 0.29081144 -0.15838763 -0.38804994
O -0.03211420 -1.48336987 -0.69475438
C 0.91263835 -0.07420114 0.98893342
O 1.05654235 -1.05035579 1.68533528
H 1.04537179 0.22127973 -1.09798203
H -0.68896917 1.78957358 -0.25910387
H -1.38585281 0.67656724 -1.45519784
H -1.69382895 0.41350731 0.27070730
H 1.22312800 0.93434832 1.32660338
H 0.21702677 -2.01186242 0.08054169
