12

C -0.767403 1.1758541 0.0033039816
N -0.18595926 -0.15255396 -0.14222962
C 1.0617306 -0.41358 0.40207514
N 1.7028548 0.48909175 1.0292853
C -0.85470515 -1.1488371 -0.81889063
O -1.939 -1.0271958 -1.3348466
H -1.741261 1.1605947 -0.48676777
H -0.11197143 1.917304 -0.46049154
H -0.8697482 1.4199294 1.063435
H 1.3998561 -1.4436511 0.22762898
H 2.587046 0.11891521 1.3588905
H -0.28143921 -2.0958712 -0.84139293
