12

C 0.5802659 -0.82283694 0.50337666
N -0.68550473 0.13397884 -1.2793548
C 0.37772867 0.71074677 0.6645902
N -1.0098313 0.62664765 0.07708764
C -0.763251 -0.79166985 -0.18156157
O 1.2236426 1.5741874 0.0026066906
H -1.5866103 0.1567973 -1.7614388
H 1.1106598 1.388418 -0.9420996
H 1.4266562 -1.1442636 -0.10943818
H 0.57114756 -1.3544651 1.4558263
H -1.559976 -1.5261074 -0.12841056
H 0.31507245 1.048567 1.698816
