11

N -1.7805028 -0.8800294 -0.27014595
C -1.8283049 0.20569868 0.53979945
C 1.5818377 0.39844957 -0.037780777
C -0.50078696 -0.9364979 -0.5866773
N -0.6742401 0.8135494 0.7408341
N 0.17369652 0.06484767 0.0057118335
H -0.0317123 -1.6686302 -1.2300447
H 1.7024903 1.4268193 -0.38600376
H 2.0813375 -0.2827897 -0.72811
H 2.0192764 0.29666278 0.95806724
H -2.7430913 0.5619198 0.9943499
