11

O -1.0574999 0.56273323 -2.1570852
C -0.41213936 0.836141 -1.0771824
C -0.27977696 -0.4887902 -0.29749325
O 0.3838019 -0.48233894 0.86151606
C 0.92722476 0.7522327 1.3547721
N -0.81035066 -1.5312009 -0.78457075
H 0.13875686 1.4884118 1.5306599
H -1.2771647 -0.4246032 -2.1626523
H -0.6824916 -2.3637328 -0.2208139
H 1.6589481 1.1652842 0.65697
H 1.410692 0.4858631 2.29588
