11

O 0.15617532 -0.17185661 1.3503282
C 1.022596 0.7637146 0.7554624
C -0.6807941 0.66862863 -0.59605813
O -0.6472027 0.44935653 -1.8960758
C -0.59035397 -0.51722115 0.25587887
N -1.0640924 -1.6481161 -0.07364429
H 1.3283272 1.5362647 1.4615006
H -0.9079181 -2.3463724 0.65196323
H -0.5306485 -0.50644267 -2.0593455
H 1.8395857 0.30565685 0.19769621
H 0.07432559 1.4663874 -0.047705825
