10

C 0.119339064 -0.69055057 0.27263117
C 0.7550511 0.60386825 -0.56323665
O 0.9532806 -1.2431965 1.0367317
C -1.151224 -0.13594125 0.61653596
H -1.503602 -0.10704981 1.6465491
H 1.0053916 1.3837782 0.15627038
H -1.7892874 0.28505465 -0.15751876
H 1.6697768 0.16163602 -0.9555906
H -0.18811394 -1.2428665 -0.68476886
H 0.12938829 0.98526734 -1.3676033
