10

C 0.049936157 -1.3226659 0.45134643
C 0.4169598 1.0214139 -0.37487024
O -0.19015308 -2.4103029 -0.013969847
C -0.61471194 -0.037191916 0.021126246
H 0.8054755 -1.2018683 1.2583488
H -0.07231234 1.9705017 -0.61529094
H 0.9919315 0.70966387 -1.2533227
H 1.1259652 1.209017 0.44023997
H -1.2013055 0.31992638 0.87891823
H -1.3117853 -0.25849387 -0.79252607
