12

O 1.0437081 1.0984751 -1.0122131
C 0.5996508 1.0138303 0.31978142
C -0.44636706 -0.08988473 0.45101157
O -1.4873915 0.19114065 -0.4470705
C 0.15617251 -1.4368031 0.11277797
O -0.32877868 -2.1400409 -0.73967135
H 0.23871075 1.1307105 -1.5506072
H 0.15975404 1.9575982 0.6716888
H 1.4706645 0.7910384 0.94494134
H -0.80892366 -0.13231035 1.4912798
H -1.6419687 -0.63367635 -0.9370294
H 1.044769 -1.750078 0.69511074
