12

O 0.6314441 1.5285262 1.0999501
C 0.16001897 -0.962541 -0.020486088
C -1.0779938 -0.31488445 -0.63468415
O 1.3764602 -0.19546859 -0.16863815
C 1.4878703 0.9701625 0.4595177
O -1.7958311 0.50855273 0.24164878
H 2.505828 1.3530182 0.31550506
H -1.7559378 -1.1233596 -0.92894065
H 0.4075548 -1.8944651 -0.5340197
H -0.7721525 0.206805 -1.5571865
H -0.014599573 -1.1623702 1.0409814
H -1.1526618 1.0860245 0.68635225
