11

C 1.86220627 1.26445516 0.12116821
N -0.01476031 0.00562783 -0.04691676
C -0.00125687 0.94122987 -1.00545228
N 1.15647047 0.23882534 0.63817023
C -0.97550623 -1.00973890 0.32404242
N 1.06688270 1.69616297 -0.95321398
H -0.81077497 1.01835791 -1.72209806
H -1.79807401 -0.98318506 -0.39330858
H 1.39699303 -0.35730927 1.41764143
H -0.51251146 -2.00062914 0.29475063
H -1.36966839 -0.81379708 1.32521689
