11

C 0.12575649 0.09025761 -0.09478833
N 1.2215071 0.9872981 -0.21998554
C 0.48694465 -1.3310342 0.23460819
C -1.1153785 0.45732057 -0.31056985
N -2.2435846 0.7732559 -0.7009407
H 0.96772003 -1.3888654 1.219876
H 0.9380561 1.8879861 -0.5842601
H -2.870593 1.0742406 0.046664648
H 1.1970824 -1.7057843 -0.5081712
H 1.6895263 1.1291484 0.671834
H -0.39703664 -1.9738233 0.24573287
