10

O -0.19415149 0.9692738 -1.656707
C -0.799757 -0.48165676 1.0079069
C 0.3826038 -0.5410604 0.09413326
C 0.1185884 -0.1544892 -1.3301816
N 0.56187946 0.6314767 0.93509644
H -1.5817574 0.10616055 0.49397534
H 1.1235158 -1.3277977 0.22558758
H 0.1818079 -0.97455704 -2.0695796
H -0.011200454 0.3114287 1.8530145
H 0.218471 1.4612211 0.44675437
