13

C 0.20040815 -1.5218127 -0.5991698
C -0.20736797 -0.0562428 -0.5836153
O -1.5733434 0.13310312 -0.22973713
C 0.7366969 0.7671042 0.3010465
O 1.9432598 0.6128564 0.261974
N 0.09851235 1.6554534 1.1102959
H 1.2495732 -1.6146963 -0.8856032
H -0.42724657 -2.076862 -1.302877
H 0.08352138 -1.9673815 0.39773545
H -0.11548778 0.35883915 -1.593101
H -1.7564446 -0.4341595 0.5294252
H -0.88685215 1.8182546 0.9749394
H 0.65477073 2.3255439 1.6186869
