13

C 1.2799467 0.7662396 -0.91289794
C -1.4579875 -0.69648516 1.2613894
O -0.6773885 1.7658544 0.049923554
C -0.012438136 0.75598776 -0.10209027
O 1.7109617 -0.52496636 -1.3117589
N -0.30472538 -0.459482 0.42299333
H -2.08845 -1.484835 0.8385536
H -2.028031 0.23189752 1.3105574
H 2.068758 1.1772164 -0.2720904
H 1.1592239 -0.8057895 -2.0513883
H 1.1422962 1.4501281 -1.7584997
H 0.3659916 -1.193363 0.25090668
H -1.1581578 -0.9824028 2.274402
