10

O -0.5053224 1.2799461 -0.66858053
C 0.43349913 0.67243177 0.044668496
O -0.46319297 -1.139372 -0.58739954
C 0.1747094 0.36855605 1.4103668
C -0.8817141 -0.11703379 0.20567487
C 0.8808524 -0.592594 -0.7408149
H 1.0970095 -0.42895922 -1.7962801
H 1.6109874 -1.2119342 -0.22340678
H -0.43457362 1.1769446 1.8427918
H -1.9122547 -0.0079854885 0.51297987
