10

O 1.1674219 0.7926413 -1.7490574
C 0.94705695 0.3764941 0.6368389
O -1.1110865 -0.6115016 0.5584857
C -0.06582392 -0.19949406 1.3035768
C 0.5702277 0.377175 -0.78370243
C -0.8099546 -0.2896678 -0.80240554
H -1.5801766 0.38531777 -1.184992
H -0.17693193 -0.38854188 2.3665516
H 1.8673158 0.7684506 1.045804
H -0.8080489 -1.2108735 -1.3910995
