10

O -1.06916068 -0.77250137 0.42484193
C -0.74963195 -0.25506337 -0.86993283
O 1.15195453 1.10783244 -1.57989370
C -0.09466510 -0.36866937 1.26434351
C 0.88404152 0.37391328 0.72310991
C 0.56101635 0.52226716 -0.70292805
H -0.64060961 -1.09017519 -1.56698844
H -0.22655375 -0.70038093 2.28931781
H 1.74832129 0.78974030 1.22097241
H -1.56471258 0.39303737 -1.20284251
