11

C -1.60705311 0.02480448 0.66465109
N 0.34447725 0.12298848 -0.05122103
C -1.24915300 -1.20528553 0.10739602
N -0.00016140 -1.11757962 -0.34601777
C 1.62386047 0.67406668 -0.44875789
N -0.57542078 0.85758690 0.54897144
H 1.84085429 1.51833431 0.20492405
H 1.58336854 1.01015556 -1.48896424
H -2.53003100 0.33858721 1.13280492
H -1.81319813 -2.12272379 0.01621221
H 2.38245671 -0.10093486 -0.33999877
