11

C 1.4796847 0.1667085 0.39727557
N 0.30028778 0.78906184 0.504165
C -1.0423268 0.77824116 -0.8261107
N -0.63118774 -0.2282183 0.7144535
C 0.08182748 -1.3607919 0.7178547
N 1.3941742 -1.1568558 0.5684269
H -0.34455395 1.2417462 -1.5198929
H -1.5308205 -0.084765 -1.272601
H -0.37204686 -2.330676 0.8713161
H -1.7373675 1.4805883 -0.38289568
H 2.4023292 0.7049611 0.22800882
