11

C 1.1347736 1.1086941 -0.88077164
N -0.65210515 -0.522629 -0.818737
C -0.71561974 -0.77810025 1.3811026
N 0.26758835 0.084522046 1.1354235
C -1.2885607 -1.1563812 0.1643901
N 0.2589076 0.19073287 -0.181665
H -2.1024826 -1.8361659 -0.044363957
H -0.95563036 -1.0804994 2.3912835
H 2.0121102 1.2735496 -0.2560498
H 1.419305 0.65806156 -1.8315063
H 0.62171376 2.0582156 -1.0591059
