9

O -0.033633843 0.26429266 -1.1515608
C -0.12727818 -1.0470937 -0.5471834
N 0.09117557 0.4171697 1.051219
C 0.101727225 1.1656696 -0.1786339
C -0.039843373 -0.8906875 0.9424648
O 0.21177842 2.348636 -0.2777142
H -1.0777172 -1.5040917 -0.8403825
H 0.18394452 0.91579545 1.9279978
H 0.68984693 -1.6696906 -0.9262069
