9

O 0.05288084 -0.56731605 -1.03558207
C -0.51521058 -1.05113787 0.20416149
N 0.25324251 0.95729699 0.55394551
C 0.52661082 0.66151091 -0.82832869
C -0.35713977 0.01580792 1.24713791
O 1.06838781 1.38515546 -1.60560209
H -1.57108657 -1.28844789 0.03997544
H 0.53613925 1.85546924 0.92708199
H 0.00617558 -1.96833894 0.49721066
