9

O 0.96393853 -0.7883307 -0.16762273
C 0.98150384 0.58259636 -0.38536784
N -0.26395136 1.0257438 0.03749778
C -1.06588 0.04412753 0.60186094
C -0.2572338 -1.0820329 0.3809383
O 1.9012055 1.1870995 -0.85140526
H -0.39387783 -2.0949087 0.7408342
H -0.5196667 1.9973747 -0.04358754
H -1.3460385 -0.87166923 -0.31314775
