11

N 1.67530618 0.57447479 1.33104718
C -0.66642029 -0.25515081 -0.98948954
N 0.60225809 -0.08994396 -0.70119601
N -1.44768369 -0.02789244 0.06889767
C 0.53747258 0.25730257 0.62265509
N -0.66573686 0.30631635 1.15083299
O -1.19214374 -0.60488948 -2.16558140
H 2.49986765 0.10636357 0.98814909
H -0.45077296 -0.69785858 -2.78100832
H 1.55701807 0.50828445 2.33047406
H -2.44916467 -0.07700655 0.14521916
