11

C -1.95552635 -0.23827784 -1.97523108
C -0.83338212 -0.11984582 -1.04061446
C 0.07148920 -0.01965195 -0.26286472
C 0.93343383 0.21276945 1.86208851
O 1.14414311 0.07590246 0.50496227
N 2.15358293 0.28001091 2.37489925
H 3.00463414 0.23595162 1.81733557
H -1.94961496 0.58852039 -2.69408506
H -1.90547422 -1.18128652 -2.52970793
H 2.24090934 0.37624156 3.37211767
H -2.90419467 -0.21033431 -1.42890051
