11

C -0.73110306 -0.16964822 -2.3159637
C -0.16390245 -0.12303499 -0.9697189
C 0.31877795 -0.09011243 0.13342153
C 0.97713387 -0.0995405 1.4395995
O 2.0853903 -0.5648407 1.6105868
N 0.24566007 0.47299007 2.4392686
H 0.009205901 0.15160945 -3.0525753
H -1.6049356 0.47989768 -2.399474
H -1.0346732 -1.192004 -2.5645795
H 0.61684304 0.4047395 3.3753202
H -0.7183966 0.7299441 2.3041143
