11

O -1.7623521 1.480715 0.34765497
C -1.1779392 -0.74940455 -0.45533794
N 0.40838602 0.8067829 0.37164906
C -0.8615261 0.5434569 0.0985877
C 1.1843233 -0.37177476 0.012279272
C 0.075499095 -1.2731363 -0.49602512
H 0.3378879 -2.267652 -0.8533901
H 0.76574755 1.6650084 0.7630641
H 1.9315441 -0.1273632 -0.75098145
H -2.60098 1.0709075 0.07144651
H 1.6994095 -0.7775399 0.89105296
