11

O 1.2532773 -0.6553456 -2.1065521
C 0.6227816 -0.34621346 -1.1161394
N 1.140414 0.034218583 0.09867895
C 0.13041806 0.33771303 1.0815995
C -1.1391098 0.092999354 0.30683285
C -0.8591655 -0.29274297 -0.93726057
H 2.1312814 0.0840529 0.26094538
H 0.18969876 1.3753338 1.4339284
H 0.19607666 -0.31678855 1.9604436
H -2.1184528 0.22918673 0.7518375
H -1.5472195 -0.54241383 -1.7343144
