11

N -0.50486654 -2.314 -0.59445095
C -0.48679838 0.8953508 0.60879254
O 0.45133018 -0.21855453 -1.1663046
C -0.8100424 -1.2003843 -0.26124763
C 0.84757936 0.50862426 -0.03700244
O -1.3414887 -0.28608793 0.4837235
H -0.42509174 1.1289905 1.6736461
H -0.98232317 1.694039 0.058188453
H 0.3926217 -1.5142304 -1.1190574
H 1.4450415 -0.09948772 0.6631987
H 1.4140383 1.4057399 -0.30948636
