11

N -0.42150363 0.94896732 2.48976050
C 0.79002678 -0.60533192 -0.26197812
O -1.59912878 -0.08160183 -0.35561512
C -0.35721509 0.08074917 -0.99045884
C 0.35573671 0.55200570 1.72479289
O 1.25006878 0.15829584 0.88982597
H 1.67843143 -0.68139851 -0.88802048
H 0.47765364 -1.59265826 0.08636452
H -0.44795639 -0.39620901 -1.97164273
H -0.09889262 1.13866875 -1.15652038
H -1.62722065 0.47851274 0.43349148
