10

O -1.6193593 1.2083327 -1.015582
C 1.4328743 -0.2768955 -0.20282897
C -0.6983897 0.48472756 -0.38660243
N -0.027741773 -0.92599034 1.3103751
N 0.5253127 0.4723955 -0.8648446
C -1.0570478 -0.25131944 0.78525156
N 1.240694 -1.000827 0.8766177
H -1.0545193 -1.0613736 1.8811722
H 2.440422 -0.28354454 -0.6153963
H -1.1822456 1.6344947 -1.7681624
