10

O 0.98975974 0.50637335 -1.7960566
C 0.3837123 0.18477705 -0.6559878
C 1.1493745 -0.2785157 0.43524855
N 0.5645483 -0.6066307 1.5675478
N -0.76067895 -0.4992669 1.6793761
C -1.4285538 -0.05511907 0.627142
N -0.9214288 0.30259958 -0.5638879
H 0.30153224 0.7987209 -2.4158833
H 2.2275743 -0.37979308 0.37918136
H -2.50584 0.026854524 0.74331963
