10

C 0.59554464 1.3853335 -0.5818399
O -0.40608907 0.3865881 -0.38405746
C -0.028009703 -0.62453043 0.4308207
O 1.0543284 -0.71590525 0.95979655
N -1.0611184 -1.5038638 0.5808272
H 0.8541079 1.867093 0.36476824
H 0.14815085 2.108465 -1.2658261
H 1.4965403 0.95112914 -1.0227172
H -1.8272877 -1.4627422 -0.070785984
H -0.82616717 -2.391567 0.9890141
