9

N -1.1737493 0.25009102 0.31767812
C -0.17066222 -0.51356566 -0.4317648
N 1.0907503 -0.023805689 -0.8435452
C -0.004152111 0.004218333 1.0756116
O 0.97011495 0.8484499 0.85801667
H -1.1877103 1.2221255 0.01794511
H -0.59837973 -1.3090721 -1.0395362
H 0.026184384 -0.70694363 1.9005885
H 1.0476041 0.22850241 -1.854994
