11

N -1.9499677 -0.18188512 0.4326095
C 1.5273632 0.17744495 -0.19415595
C -0.6352653 -0.11706461 0.013090501
N -0.34406033 -0.2722743 -1.2947618
C 0.5033047 0.18156065 0.7605289
N 0.96500355 -0.1658257 -1.4654819
H -2.5475357 -0.642175 -0.2388501
H 0.57589674 0.38819593 1.8181192
H 1.3802575 1.0247386 -1.1412903
H -2.0780804 -0.5178459 1.3749189
H 2.6030843 0.12513058 -0.06472714
