11

N -0.02081990 -1.42897585 -0.18063343
C -1.02933371 0.29121326 -1.17232760
C 0.36794623 -0.23234075 0.50899537
N 1.19664143 -0.40468590 1.59297873
C -0.21077199 0.83728715 -0.05662103
N -0.80144757 -1.15752230 -1.11766022
H -2.10885928 0.46164603 -1.07583533
H 1.75138867 0.39153960 1.86418905
H 1.70744490 -1.27406865 1.58826216
H -0.73374451 0.63842063 -2.16950722
H -0.11844440 1.87748677 0.21815953
