11

N 0.7561169 0.34960368 1.8545531
C -0.68738943 -0.3218503 -1.3937694
C 0.2638357 0.0126629025 0.6153644
N 0.5202603 -1.330879 0.18200064
C -0.45828742 0.6669913 -0.30622828
N -0.004640836 -1.5364813 -0.93302953
H 1.5115976 -0.23770024 2.1725025
H 0.90418154 1.3313695 2.0262718
H -0.25691637 -0.044064093 -2.363213
H -0.8086989 1.6882141 -0.28726023
H -1.7400593 -0.57786673 -1.5671917
