11

N -1.7086532 -0.22583218 0.6402937
C 1.2964509 0.40207875 -1.1580316
C 1.7332475 -0.01231692 0.06398769
C -0.3819828 -0.013360934 0.027389048
C -0.17577967 0.41616896 -1.2215912
O 0.67313415 -0.29721567 0.87525123
H -1.8961308 0.3711138 1.4505959
H -2.3266752 0.037805837 -0.13683784
H 2.7058964 -0.16114615 0.51137424
H 1.9697251 0.678934 -1.9628304
H -1.8892324 -1.1962295 0.9103993
