11

N -1.81600896 -0.28729197 -0.00683447
C 1.66883369 0.07356834 -0.62695401
C 0.37039366 -0.30823449 -1.21003317
C -0.35587274 -0.09125876 -0.10893101
C 1.53333407 0.44762216 0.67595419
O 0.22744939 0.35609133 1.06253336
H 2.62353678 0.06660327 -1.14284314
H -2.09122128 -1.00255003 0.67132548
H -2.03628682 -0.60867831 -0.95740173
H -2.33987309 0.56747781 0.20057094
H 2.21571539 0.78665060 1.44261330
