12

N -2.05481670 -0.36702828 -1.03057974
C -0.97334612 0.39312884 -1.18655397
N -0.28574963 0.88825487 1.49201788
C 0.87488623 0.49828873 1.15391050
O 2.29012339 -0.71666623 -0.28788405
C 1.05028931 -0.19469175 -0.13821185
N 0.18323442 -0.27380787 -1.05681645
H -2.96151453 0.05597773 -1.14674501
H -0.25059260 1.41285154 2.36630368
H 1.79467290 0.64701484 1.72957915
H 2.36894724 -1.01766136 -1.20354488
H -2.03613419 -1.32566065 -0.69147524
