12

N -0.8040083 1.6983731 -1.374109
C 0.83225083 -0.6777315 0.090297595
N 0.8330134 0.36036155 -0.63374674
C 0.15343635 1.505185 -0.46982834
O 1.7777188 -1.6366947 -0.045818396
C -0.11728627 -0.96357095 1.1844838
N -1.1479478 -0.23241535 1.3133795
H -1.1147892 0.9931361 -2.037715
H -1.6744713 -0.49335703 2.1473434
H -1.3362794 2.5526698 -1.3367723
H 0.16244847 -1.798582 1.8356569
H 2.4359145 -1.3073739 -0.67317176
