10

O 1.5033237 0.6522648 -0.49276182
C -0.51720375 0.700521 -1.1888604
C 0.3487278 0.13838059 -0.22670569
C -0.17809387 -0.22532178 1.1649235
N 0.12564859 -1.2622015 0.16165274
H 0.54520404 -0.04740138 1.958362
H -0.78044945 1.7522844 -1.1286414
H 1.040141 -1.6826153 0.34796646
H -0.86203015 0.11266211 -2.04092
H -1.2252678 -0.13857286 1.4449846
