10

O 0.6089607 0.7591165 -1.1417152
C 0.106393404 0.054151956 -0.05594572
C -1.1378117 -0.6738663 0.12921624
C 0.8916469 1.2368497 0.19747993
N 0.20484084 -1.3244754 0.22006604
H 0.40778863 2.1775277 0.4506309
H -1.735617 -0.86984915 -0.7561094
H -1.6879792 -0.63103986 1.0647525
H 1.9295824 1.1338999 0.5082952
H 0.41219503 -1.8623148 -0.61667037
