10

O 2.004687 1.1504326 0.42985123
C 0.9601475 0.6002497 0.20450577
C 0.43223315 -0.84850246 0.23260456
C -0.91379416 -0.24438193 -0.23531182
N -0.2661418 1.0651933 -0.19681366
H 0.92357063 -1.517304 -0.47755063
H 0.42558017 -1.3012216 1.2264005
H -1.2348716 -0.55048466 -1.2352413
H -1.7431823 -0.35042647 0.47065702
H -0.5882285 1.9964454 -0.41910142
