11

O -1.6413505 0.69125664 1.3349491
C -0.11523316 0.8723231 -0.64477473
C -0.646506 0.31569397 0.4896703
C 0.9741798 -1.0625386 -0.1987
C 0.9215108 -0.018867902 -1.0775137
N 0.003553284 -0.847542 0.76409274
H -0.21139693 -1.4428903 1.5473952
H 1.6046108 -1.9370327 -0.16269682
H -0.42253482 1.7973181 -1.1122267
H 1.5471623 0.11522284 -1.9467778
H -2.0139956 1.5170566 1.0065821
