10

C 1.21949994 0.06660478 -0.12823158
C -0.19390918 -0.26099748 -0.17100905
C -1.03384537 0.61563388 0.61910658
C -1.76040939 1.32546384 1.26219188
N -0.62940219 -1.25219483 -0.85529623
N 2.75711678 -1.32255807 -1.40973659
N 2.04454644 -0.67633798 -0.81489476
H 1.65104270 0.88032548 0.43410828
H -1.64213326 -1.33006582 -0.76619733
H -2.41250642 1.95412658 1.82995910
