10

O 0.9900993 0.5041322 -1.7969847
C 0.3826782 0.18242614 -0.65492594
C 1.1501312 -0.27895722 0.43429992
N 0.56556654 -0.6034179 1.5676776
N -0.75854665 -0.49268857 1.6807973
C -1.428954 -0.052526616 0.6258648
N -0.9215251 0.2989597 -0.562351
H 0.299622 0.7942103 -2.4148912
H 2.2277515 -0.3810991 0.37827662
H -2.5068228 0.028960984 0.7422366
