10

O 0.63764113 -0.22264512 -1.996949
C -0.073659465 1.2372576 0.96032745
C -0.6320512 -1.2107208 -0.09158884
N -0.9184316 0.5213538 1.6054618
N -0.189386 -0.6744016 1.1819878
C 0.22330032 -0.42003977 -0.7522441
N 0.7561464 0.20540069 0.4380122
H 0.058698777 2.3100102 0.88748145
H 1.4749292 0.26100963 -1.9722899
H -1.3371875 -2.0072246 -0.2601989
