9

N 0.72305876 0.5059814 1.2616129
C 0.54537505 0.5846798 -0.19980301
C -0.5788418 0.4222814 -1.0802487
C 0.100702904 -0.6185207 0.57129735
N -1.0144546 -0.53560215 -1.664717
H -0.95479846 -0.6431834 0.8485223
H 0.039975375 1.0470957 1.7938595
H 1.486008 0.59860456 -0.7446494
H -0.34702528 -1.3613362 -0.78587407
