10

C -0.93437755 0.3768984 2.3676157
C -0.47558647 0.20824148 1.2679014
C 0.06612623 0.006716854 -0.03379924
C 1.3412921 0.12096361 -0.5507366
N 1.3056412 -0.1945352 -1.8702254
N 0.08822457 -0.49820495 -2.2035742
N -0.6650859 -0.3806424 -1.1098981
H -1.3298289 0.5303109 3.3492677
H 2.2568657 0.4037186 -0.054689787
H -1.6532712 -0.5734673 -1.1618617
