10

C -1.0399123 0.042901322 -0.8193248
C 2.1330607 -1.5827448 0.021953993
C 1.159149 -0.88338405 0.07545256
C -0.0037017742 -0.055428185 0.10805078
N -1.4876928 1.4268183 0.7480769
N -0.2829926 0.78014857 1.1214294
N -1.883999 0.9989741 -0.43404675
H -1.1935065 -0.5234103 -1.7276415
H -0.39946526 2.00155 0.92125654
H 2.999061 -2.2054243 -0.015207315
