10

C 0.6106183 -0.31549382 -1.0539542
C -0.18284675 -0.80449516 1.3325623
C -0.057189018 -0.00867664 0.15166214
C -0.27296385 -1.500274 2.3061562
N -0.24958938 1.5672978 -1.1775875
N -0.5971252 1.2042645 0.038621195
N 0.46846992 0.7094884 -1.8804781
H -0.36078155 -2.1119423 3.1776156
H 1.1612986 -1.2007264 -1.3343214
H -0.51989096 2.4605577 -1.5602763
