9

O -1.3178475 -0.65961254 0.8844927
C -0.5980253 0.29954654 0.15442725
C 0.86101776 0.19448882 0.33749717
C 2.0432918 0.07421964 0.50655013
C -0.9301349 0.2348474 -1.2940122
N -1.2068577 0.15185699 -2.4112093
H -1.003821 -1.5381241 0.63592505
H -0.944441 1.2690221 0.5286078
H 3.096818 -0.026244808 0.6577217
