9

O -2.18613596 0.21800581 1.03280079
C -1.22146522 -0.60394438 0.56774158
C -0.17236202 -0.27530512 -0.14222671
C 3.15910977 0.70783355 0.06689945
C 0.86842981 0.03482656 -0.87349171
N 2.09555347 0.39331998 -0.33153170
H -1.41278301 -1.63511657 0.85283449
H -1.97809016 1.13111718 0.78705720
H 0.84774348 0.02926303 -1.96008309
