9

N 1.40164417 0.48228403 0.99770066
C 0.12323120 0.28422712 0.83758405
C -0.39011314 -0.18660258 -0.43846697
N -1.59959106 -0.41829489 -0.74624742
N 2.50275225 0.66098238 1.14134900
O 0.58207223 -0.38293697 -1.35581474
H 0.11981626 -0.68520871 -2.15279632
H -0.50287965 0.48959685 1.69080935
H -2.23693209 -0.24404739 0.02588275
