11

N 0.31668773 1.8785723 1.052378
C -0.1357213 -1.6565727 -0.46821794
C -0.37918246 -0.48102093 -1.2998383
C -0.21926987 0.72706336 -0.7362498
C 0.19230376 0.6459693 0.67025626
N 0.22045772 -1.7037852 0.7675282
O 0.39844823 -0.42987943 1.3919482
H -0.6793406 -0.6417544 -2.332065
H 0.5827564 2.1865604 1.9808774
H -0.040413443 2.1306696 -0.14323692
H -0.25672624 -2.6558223 -0.88338006
