11

N -1.38169509 -0.39695479 -2.72060111
C 0.12743023 0.72363637 -0.88841185
C -0.59207156 0.38377783 0.41178150
C -0.70501073 0.11245185 -1.93491232
C 0.00915955 -0.83467810 1.00188800
O 0.80870619 0.20247667 1.63878419
H 0.16458192 1.80465829 -1.05218288
H 0.30020447 0.55968504 2.38049793
H 1.15020979 0.32245457 -0.97189605
H 0.70552085 -1.46086912 0.43116201
H -0.58703547 -1.41663833 1.70389066
