11

N 0.46515808 0.33870104 -2.9249701
C 0.36146915 0.6304536 -1.8123587
C 0.20780025 0.9681165 -0.39109784
C -0.5984326 -0.08671925 0.34439927
C 0.058767695 -1.1838454 1.0511692
O -0.47257572 -0.063632354 1.7507849
H -0.2833847 1.944457 -0.31004807
H 1.1960621 1.0601639 0.07036792
H -1.6142788 -0.23532937 -0.021161215
H -0.4673321 -2.123702 1.2024281
H 1.1467468 -1.2486634 1.0404866
