11

N 2.3535755 -0.69645244 -1.8086698
C -0.2844419 1.2252325 0.65923434
C 0.17880902 -0.17663679 0.73024094
C 1.3326485 -0.81256104 -1.2767875
C 0.04147192 -0.91972667 -0.58649135
O -1.4239194 0.4749919 1.1344187
H -0.5374066 1.6533623 -0.31274283
H 0.101549186 1.9549233 1.3712094
H -0.18213905 -1.9788737 -0.41747034
H -0.74423444 -0.5027863 -1.232062
H -0.83591276 -0.22147293 1.7391205
