11

N -3.02686 0.2547138 -0.49149197
C 0.218328 0.78714216 -0.011758227
C -0.48364493 -0.0892231 -1.0427322
C 0.6043368 -0.040093817 1.1548682
C -1.9149799 0.092699826 -0.7601513
O 1.8021271 -0.14713591 0.33362404
H 2.3292484 0.6533078 0.466831
H 0.77402794 0.45902905 2.1082911
H -0.27796513 0.2519504 -2.0616071
H 0.22047743 -1.0593641 1.2833302
H -0.24509573 -1.1630261 -0.97920364
