9

O 0.73970798 -1.64501753 1.61565041
C -0.59288924 0.98067630 -0.45528651
C 0.23331116 0.19864068 0.19530466
C 1.05590191 -0.56970362 0.86001869
C -1.33381983 0.60051467 -2.87793687
N -0.97206291 0.74725936 -1.76825184
H -0.21668414 -1.79293400 1.58914340
H -1.04104818 1.86850298 -0.01757051
H 2.12758350 -0.38793882 0.85892884
