9

O -1.7679502 -0.58776695 -0.7614887
C 0.69876665 0.8632124 0.8987594
C -0.39832538 0.256935 0.99212927
C -0.81141776 -0.73760974 0.10403907
C 1.2632761 -0.31428784 -1.131841
N 2.1211295 0.36920813 -0.67966384
H 1.446976 1.5861548 1.1510218
H -0.48026595 -1.7687004 0.20242529
H -2.0721886 0.33285484 -0.77538157
