10

O 0.035423696 1.8911492 0.29717106
C -0.27725887 -1.4246095 -0.8800368
C 0.6783095 0.68356186 -0.083551325
C 0.29028228 0.90724915 1.3064523
N -0.1042461 -0.1297556 -0.9005038
H 0.036078792 -1.9877443 -0.008829247
H -0.670815 -1.9244539 -1.757946
H 1.0555258 1.1648811 2.0358577
H -0.61359346 0.45290622 1.7196997
H -0.4297067 0.36681613 -1.7283134
