10

O -1.24944078 0.28801705 -0.78100190
C -0.28196823 -0.61117303 -1.38415646
C 0.71606107 0.72708494 0.85026598
C -0.10435955 -0.04689361 -0.06692717
N 0.00342692 -0.52724345 1.25378154
H -0.82486207 -0.32262368 1.80649762
H -0.61767685 -1.64070421 -1.48104727
H 0.31178278 1.67543151 1.19357010
H 1.79941720 0.65186760 0.84691814
H 0.24761930 -0.19376319 -2.23790108
