11

O -2.048979 -0.20512766 1.1517972
C 0.16668026 -0.2543026 -1.5431329
C 0.472167 -0.27565387 0.9957027
N 0.84013295 0.5756879 -0.17433853
C -0.99965876 -0.02645907 0.6072785
C -0.56012326 0.68098736 -0.66168404
H 1.4139464 0.2572562 -1.0905949
H 0.88170093 -1.2888848 0.9586373
H -0.9754226 1.6256111 -1.0037202
H 0.72717166 0.20350958 1.9452673
H 0.08238445 -1.2926242 -1.1852124
