11

O 0.24412944 0.30148447 2.33596656
C -0.54425767 -1.38529339 -0.68688628
C 0.59332962 -0.92303073 0.17637124
N 0.10969677 -0.04180814 -0.93630431
C 0.18312742 0.15261396 1.14940039
C -0.29000180 1.05650417 -0.01075563
H -1.51707766 -1.15784791 -0.22831150
H 0.65437935 0.13262352 -1.76941651
H 1.56923686 -1.39895594 0.17097494
H 0.34331625 1.94559485 -0.09413536
H -1.34587871 1.31811510 -0.10690365
