11

O -2.2963536 -0.6248008 -0.42430842
C -1.1532176 -0.37407738 -0.16279319
C 0.11322667 -1.2121338 0.043393914
N 0.7564046 -0.048051346 0.72917795
C 0.8589607 0.9812837 -0.28449064
C -0.44163457 0.810141 0.41303247
H -0.061113186 -2.0363986 0.7392699
H 0.65775096 -1.5786897 -0.8328519
H 0.9588235 0.6961435 -1.3298866
H 1.4565662 1.8365839 0.016109228
H -0.8494138 1.5499995 1.0933472
