11

C -0.5211126 1.1370453 0.4794359
C -0.12875144 -0.23189767 -0.031016294
C 1.2601225 -0.7131687 0.028611507
O 0.28018788 -1.1810006 0.9407381
C -0.98886335 -0.77520066 -1.080916
N -1.6780108 -1.1738805 -1.9182825
H -1.5260081 1.1106502 0.9069396
H 0.1819789 1.4528633 1.2539158
H -0.50981104 1.8690653 -0.33387744
H 1.6153466 -1.4454391 -0.69313663
H 2.014922 -0.04903687 0.44758782
