11

C -0.51688013 0.60488954 0.93688488
C 0.83197336 0.01823100 0.43806686
C 0.02417423 -0.70136498 -0.64265517
O 0.94084768 1.16053125 -0.47594585
C -0.45953720 0.73665512 -0.60832907
N -0.18582835 -1.76885344 -1.25923124
H -0.41804889 1.55329959 1.46964567
H -1.24646569 -0.07319047 1.38517355
H -1.09887619 1.28670196 -1.29458919
H 0.40920796 -2.53367215 -0.94412800
H 1.71943378 -0.28322743 0.99510744
