11

C -0.9877131 -0.108204454 -0.36961344
C 0.34210715 -0.8360011 -0.2992787
C -0.511217 0.73056316 0.8460168
O -0.35106343 0.883311 -1.2470235
C 0.64262325 0.65944016 -0.19128142
N 0.8017067 -1.9984362 -0.33549532
H -0.37594184 0.23725963 1.8111088
H -0.9802384 1.7141744 0.9209244
H -1.9792967 -0.4663525 -0.6356036
H 1.8173692 -2.0269794 -0.25854802
H 1.5816643 1.2112253 -0.24120595
