10

O -1.770758 -1.1039699 1.21175
C -0.8784293 -0.5475587 0.60142505
N -0.86481965 -0.13847528 -0.72176385
C 0.3471883 0.4653208 -1.0519336
C 1.1143591 0.44762856 0.051282417
N 0.37375957 -0.16739804 1.0586437
H -1.651655 -0.28219625 -1.3302844
H 0.5477098 0.8494203 -2.0389323
H 2.1145139 0.8137603 0.21533774
H 0.66813135 -0.33653152 2.0044756
