10

O -1.5897621 1.4907098 0.43333995
C 1.3018155 -0.78358144 0.3359125
N 0.41920412 0.31652686 1.0044593
C -0.75962204 0.6685227 0.13949107
C 0.58990216 -0.9540371 -0.79147947
N -0.5927155 -0.12997687 -0.9196124
H 0.09858375 -0.0064264378 1.917491
H -1.2418301 -0.11885201 -1.6911938
H 0.7955044 -1.6348199 -1.6063051
H 0.97892004 1.1519343 1.177897
