11

N -0.02280536 -0.89259225 1.68306299
C 0.11671807 0.15480940 -1.38524566
C 0.26011669 0.77198310 0.02013091
C -0.80018077 0.15810921 0.92690967
C 0.39774091 -0.63262644 0.39362906
O 0.24866226 -1.20753083 -0.85038175
H 0.94201350 0.37867994 -2.06634472
H 0.84468910 1.65529980 0.26454074
H -1.73206136 -0.19689077 0.52492795
H -0.85430227 0.27048968 -1.87641080
H 0.59940892 -0.45973044 2.36518165
