10

O 0.01639815 1.63307276 -1.86074788
C -1.59548137 -0.06536691 1.19650975
C -0.54757189 -0.04175327 0.43458438
N 1.63507368 -1.00541952 -0.02660429
O 1.48476366 -1.71025926 0.93866781
C 0.54923722 -0.07972598 -0.29436232
C 0.79022452 0.80132841 -1.47263085
H -2.44756896 -0.69561564 0.95366111
H 1.76772229 0.61302942 -1.96043291
H -1.65279758 0.55070997 2.09135515
