10

O -2.3833358 0.95809287 0.4090701
C -1.767177 -0.057109956 0.627087
C -0.35746184 -0.22486877 0.21173698
N 0.27427635 -1.3425783 0.4624079
O 1.5350477 -1.175468 -0.034032576
C 1.6385868 0.04921837 -0.57788813
C 0.47065702 0.71783686 -0.4621638
H -2.2129066 -0.9236548 1.1499345
H 2.6040568 0.2886398 -1.0023202
H 0.1982563 1.7098919 -0.78383183
