11

O 1.199546 0.6366776 -1.9621716
C 0.16204652 0.6852768 -1.3539788
C 0.041815232 0.16285041 0.053582847
C 0.8671249 -1.0047764 0.4378224
O 1.1974154 0.28961092 0.86868185
C -1.2531855 0.36488155 0.7768277
O -2.2887385 0.5973871 0.2064296
H -0.76894164 1.098789 -1.7837678
H 0.49947733 -1.6833669 1.2071894
H 1.518477 -1.4212139 -0.3289654
H -1.1750364 0.27388364 1.8783498
