10

N 0.10445990 -0.03452109 2.02503015
C 0.14245926 -0.12472021 0.73544195
O 0.30547090 -0.40943647 -1.52247936
C 0.77253796 -0.85286947 -0.28433138
C -0.54324209 0.53930109 -1.32132534
N -0.69104959 0.76489648 -0.02816812
H 0.74764098 -0.70000314 2.44132075
H -1.28676431 1.44449700 0.41556363
H 1.47758160 -1.66553606 -0.31455354
H -1.02909450 1.03839172 -2.14649863
