12

N 0.08225342 1.52544698 -0.17081535
C -0.88277260 1.37929049 0.74881532
C -0.22146809 -0.77008542 -0.06459902
C 0.45484395 0.32269023 -0.92155539
N 1.45441109 -2.09398771 1.46945553
C 0.73124559 -1.51074442 0.78512738
N -1.13324684 0.04528948 0.74186568
H -1.66860476 -0.37606663 1.48471790
H 0.03414920 0.33699406 -1.93231878
H 0.37317378 2.44115266 -0.47243004
H 1.53851753 0.19087820 -0.98036734
H -0.76250236 -1.49085796 -0.68789561
