10

O -1.57961700 -0.44295146 -1.17553292
C 0.85059791 -0.59518510 -0.54368201
N -0.55408279 0.59082359 0.64707663
C 0.70436765 0.66483228 1.18698882
C -0.45773478 -0.21272316 -0.45702111
N 1.56417231 -0.03226722 0.49952131
H 0.91616611 1.24221623 2.07552258
H -1.40048038 1.03087760 0.96953874
H -1.36376983 -1.01458383 -1.92126272
H 1.32038101 -1.23103892 -1.28114934
