10

O 1.7706486 -0.85398215 1.1729903
C -0.19119388 0.5882763 -1.1144451
N 0.99257153 0.12837638 -0.5662588
C 0.70381784 -0.41819343 0.6081735
C -1.1993467 0.3066118 -0.24659964
N -0.6163018 -0.3418699 0.8593409
H -2.2618237 0.49218673 -0.29440126
H -0.24064589 1.0755254 -2.0766997
H 2.1228912 -0.29528546 -0.025844589
H -1.0806171 -0.68164575 1.683744
