10

N -1.3452016 -0.76959276 0.0020617405
C -0.14889078 -0.38152596 -0.34961396
C 1.0763906 -0.73906195 0.30220008
N 1.4273572 0.46537805 0.5629393
C 0.44758412 1.2686676 -0.3610847
O -0.30033216 2.114409 0.11327624
H 1.5336175 -1.6654965 0.6403101
H -2.1334164 -0.22763252 -0.32826144
H -1.5317636 -1.4305474 0.744249
H 0.974655 1.3654025 -1.3260764
