10

N -0.55206408 -1.07122619 0.74530673
C -0.40043019 1.31461847 0.21561885
C 0.06770037 -0.07711721 -0.04391367
N 1.54389319 -0.18075359 -0.41752887
C 0.68549803 -0.38516049 -1.31778798
O -1.23314932 1.57993664 1.04874243
H 0.09831362 2.08737023 -0.40290357
H -0.87447665 -0.67952547 1.62388288
H 0.03887904 -1.87659811 0.89595809
H 0.62583590 -0.71154437 -2.34737489
