17

C -1.33702291 1.93896844 0.03145700
N -0.54381086 1.00936149 -0.73983423
C -0.03887585 0.00520370 -0.13536181
O 0.68199544 -0.90939608 -0.80237424
N -0.16338794 -0.32550157 1.19810800
C 0.66418134 -1.33140145 1.83540275
C 0.79382825 -0.68954774 -2.20479176
H -2.21085045 1.46468113 0.50421619
H -0.75750360 2.44719146 0.81921437
H -1.71042570 2.71698255 -0.64055022
H -0.46072286 0.43687487 1.78038801
H 0.62399856 -2.25860604 1.25990218
H 0.25829357 -1.52742060 2.83101273
H 1.71444804 -1.02871204 1.93052007
H 1.28548496 0.26317415 -2.41629396
H 1.39230941 -1.52508497 -2.57266656
H -0.19193950 -0.68676722 -2.67834856
