9

O 0.037560478 1.0991414 -0.83367276
C 0.22508168 -0.7128916 0.5840022
N -1.1676334 -0.51603734 0.20259681
C 0.9986404 0.3848978 -0.12905176
C -1.1609409 0.4883935 -0.56547034
O 2.1559353 0.6607195 -0.15319794
H -2.0219336 0.9361338 -1.0510223
H 0.5811837 -1.7014849 0.27741992
H 0.35210615 -0.6388719 1.6683961
