10

O -0.9902081 -1.285571 1.5310185
C -0.48077843 1.8482342 -0.6048521
C 0.13380612 -1.4110155 1.1104281
N -0.44779432 -0.6364914 -1.2626237
O 0.097552456 2.60545 0.13355978
C 0.59963536 -0.7363043 -0.1436098
C -0.14907292 0.40397128 -0.639686
H -1.2824169 2.1533017 -1.2973616
H 0.89488286 -2.0246658 1.6323488
H 1.6243937 -0.916909 -0.4592218
