10

O 0.16866846 1.3639475 2.1461554
C 0.16866164 -1.634039 -1.0748264
C 0.009916749 1.624774 0.96639174
N 0.059948556 -1.040001 1.3301294
O 0.2610723 -1.1819067 -2.1809773
C 0.11121705 -0.70571345 0.13639781
C -0.23478171 0.6847438 -0.08536896
H -0.7894995 0.93999034 -0.98172253
H 0.12256158 2.6574414 0.58284605
H 0.12223494 -2.7092369 -0.83902496
