10

O -2.3866854 0.95760685 0.4127362
C -1.7679487 -0.05816273 0.6275309
C -0.35695317 -0.22472693 0.21183875
N 0.27723393 -1.3408375 0.4641378
O 1.5369602 -1.1736567 -0.032049365
C 1.6389781 0.05035399 -0.5786903
C 0.46942964 0.7176832 -0.46313247
H -2.2113862 -0.92610335 1.147908
H 2.6037498 0.2888645 -1.0037919
H 0.19662175 1.7089787 -0.7864874
