11

C -1.13949034 1.55373858 1.77433199
N -0.44994981 1.38471866 0.84222319
C 0.34068587 1.02390680 -0.31598597
C 0.11203145 -1.35890200 0.05425238
N -0.00299199 -0.24475318 -0.88118798
H -0.93957034 -0.20124882 -1.26404759
H -0.53391666 -1.26001866 0.93644667
H -0.14109398 -2.28301474 -0.47077016
H 0.21265704 1.80929173 -1.06514363
H 1.39050499 1.01015772 -0.00284977
H 1.15113371 -1.43387616 0.39273084
