11

C -1.308716 -0.78739 0.68056095
N -0.12906107 -0.053426698 0.2636548
C 0.39884278 0.09984824 -0.9720161
C 1.489597 0.90388644 -0.7666886
N 1.5693895 1.1929481 0.5571521
N 0.59207326 0.6146307 1.1738576
H -1.3641815 -0.707485 1.7662054
H -2.2058156 -0.35228416 0.2335445
H -1.2239456 -1.837995 0.3932395
H -0.027587509 -0.3583579 -1.8517696
H 2.2094052 1.2856253 -1.4777408
