12

N 0.695802 0.42117515 -1.3874414
C 0.1606631 -0.6771897 -1.0355281
C -0.5122894 -0.5235785 0.29111385
N -1.193513 -1.5259777 0.9049667
C 0.3368738 1.3809938 -0.3245797
O 1.4337895 2.0917923 0.12286801
N -0.37317404 0.6720021 0.7308022
H -0.3394854 2.1165857 -0.7774231
H -0.97707224 -2.4771655 0.6557537
H 0.214545 -1.5875188 -1.624381
H 2.0163527 1.4690701 0.5826978
H -1.4624918 -1.360189 1.8611506
