12

N 0.59314794 0.02430440 -1.49469302
C -0.33097352 -0.68674033 -0.98770499
C -0.64627785 -0.21592832 0.39626017
N -1.61368316 -0.76991581 1.17273289
C 0.88660105 1.05412318 -0.47827045
O 2.24155491 1.16918196 -0.23428374
N 0.09710487 0.77833980 0.71391554
H -0.79595531 -1.52261273 -1.50098791
H 0.56987857 2.01564961 -0.90109211
H -1.90450043 -1.71394079 0.97791476
H -1.62684333 -0.48397173 2.13823066
H 2.52994598 0.35151060 0.19797821
