10

O -0.8329908 -1.0415827 -1.4316463
C -0.35726807 -0.33218235 -0.38483718
C 0.6320162 0.6583777 -0.33357897
N 0.71968937 1.102411 1.0460807
N -0.10662371 0.34521943 1.7523967
C -0.784971 -0.46692863 0.9301741
H -0.39647645 -0.7550067 -2.2426693
H -1.538054 -1.150176 1.304192
H 1.077566 1.2626059 -1.1158638
H 1.5871125 0.37726215 0.475752
