10

O -1.4926372 -0.015530233 1.1408525
C -0.49143794 0.15730773 0.27056053
C -0.29798043 1.2043371 -0.5438396
N 0.8826732 0.9936006 -1.3055748
N 1.4293133 -0.10075046 -1.0221231
C 0.6426661 -0.77958405 0.009934562
H 1.2793658 -0.95106834 0.8855623
H -0.883283 2.1049535 -0.67224133
H 0.32626882 -1.7578174 -0.3709956
H -1.3949486 -0.8554489 1.6078644
