10

O -0.37925377 1.6397113 -1.2152324
C -0.1697433 0.60746056 -0.35682
C 0.51566625 -0.57411534 -0.5347909
N 0.40880495 -1.2371619 0.65065634
N -0.28802022 -0.56951857 1.5680801
C -0.6496425 0.55776 0.9714312
H -0.03650737 1.4023141 -2.0850837
H 1.051644 -0.9821302 -1.3786291
H 0.78583616 -2.139694 0.8821772
H -1.2387843 1.2953738 1.4982113
