11

N 0.49187092 1.36741696 0.57722884
C 0.04546821 -1.37832177 0.90705755
O -0.41573375 -1.20435613 -0.46022204
C -0.40540268 -0.11055691 -1.08327548
C 0.03163025 1.28540205 -0.65014531
O -0.12061439 2.12222707 -1.54748180
H 1.09717990 -1.09914443 0.96620543
H -0.11686393 -2.43412970 1.10434071
H -0.79048483 -0.17138921 -2.10162008
H 0.72045301 2.35737093 0.72313520
H -0.53750256 -0.73451891 1.56477689
