11

N 0.19308516 1.195435 0.98924845
C 0.13466153 -1.5639782 0.51032364
O -0.15943536 -1.0645019 -0.82251364
C -0.07948179 1.4116578 -0.2772231
C -0.23389976 0.1545472 -1.127593
O -0.23655732 2.4449356 -0.9377771
H 1.113151 -1.1975597 0.81989074
H 0.11183129 -2.6438453 0.39470106
H -0.6237285 -1.2004322 1.2028629
H -0.4643134 0.34046367 -2.1770496
H 0.24468715 2.1232777 1.4251297
