11

N 0.90683636 0.69090309 0.90758688
C 1.15184403 -0.72346937 0.60273230
N -0.20286086 1.06995974 0.33040862
N -1.83438566 0.23196445 -1.14577664
C -0.65228486 0.06334734 -0.42865563
C 0.11730772 -1.13047436 -0.37156923
H 2.16710423 -0.88140151 0.22183566
H 1.24303876 1.23562427 1.68866223
H -2.02987545 1.18301098 -1.42241321
H -1.91346333 -0.42565994 -1.90746913
H 1.04673869 -1.31380459 1.52465853
