11

N 1.4742165 0.37075892 1.3578811
C 0.43765092 0.20026393 0.43970376
N -0.27857596 1.2328722 0.024447922
N -1.2149651 0.68476826 -0.7791767
C -1.0991254 -0.6519542 -0.8908145
C -0.02778581 -1.0221838 -0.10725872
H 2.2858295 -0.19691902 1.1579262
H 1.7311883 1.3450222 1.4467697
H -1.8934252 1.2873565 -1.2118664
H -1.773882 -1.2349443 -1.5013196
H 0.35887387 -2.0150406 0.06370762
