11

N 1.1683891 1.1904202 -0.41009983
C 0.13971043 -0.36429742 1.1191919
N -0.62783164 -1.569878 -0.9956949
N -0.28548297 0.83317465 -0.5595943
C -0.29890248 -0.5673758 -0.13664377
C 0.30613756 1.0825881 0.75044966
H -0.8356522 -2.4677413 -0.58833176
H 0.46100453 -0.97362584 1.9491761
H 0.024740048 1.9610445 1.3262001
H 1.1818453 2.1737645 -0.69999975
H -1.2339575 -1.2980735 -1.7546535
