11

N -1.1900094 -1.8229587 -0.07928177
C -0.9487117 0.6409435 -0.09490606
C 0.22678289 1.5355088 -0.18891664
C 1.3367234 0.5893959 0.03715908
C -0.46906158 -0.79240346 -0.009381309
O 0.87693053 -0.77390313 0.17068562
H 2.0321515 0.6543392 -0.8122034
H -1.73073 0.82060695 -0.8384784
H -1.4027541 0.93965155 0.869558
H -0.6318768 -2.669503 0.010602639
H 1.9005554 0.87832254 0.93516225
