11

N 1.5426303 1.6017632 -0.24600974
C -1.4367887 -0.38314986 0.23844944
C 0.7003429 0.6648739 -0.15725438
C -0.7019307 0.8075626 0.34724677
C -0.38565627 -1.3362947 -0.25785288
O 0.86441666 -0.633879 -0.49436173
H -1.1033654 1.7839715 0.604447
H 2.417906 1.2635915 -0.64455086
H -0.9851049 0.15160395 1.3788693
H -0.71650165 -1.7651591 -1.2101918
H -0.19594848 -2.154884 0.44120893
