11

N 0.13860320 -2.15918486 -0.25356751
C 0.63809789 1.29982098 -0.19721597
C -1.07449365 -0.10046470 0.39400496
C 0.10522041 -0.90911726 -0.10219863
C -0.77756042 1.33891179 0.21822505
O 1.12987933 -0.05097111 -0.34328036
H 1.25881339 1.84194081 0.52984194
H -1.15603146 -0.19748608 1.49378237
H -2.04726149 -0.42476310 0.01284269
H 0.73693249 1.82589415 -1.15780602
H 1.04780016 -2.46458088 -0.59462851
