11

N -0.88409015 -1.28806360 0.27437300
C 1.63662914 0.60633647 -0.49756715
O -1.55972624 -0.12295198 -1.55934298
C -0.85946967 -0.22836729 -0.57025312
C 0.17862810 0.83096468 -0.26738060
O 0.73788445 0.68787217 1.08154014
H 1.08302089 1.55157879 1.35348775
H 1.74075499 -0.49763807 -0.52684772
H -0.23613395 1.82132247 -0.46055346
H -1.51841839 -2.04470625 0.06791645
H -0.31907923 -1.31634728 1.10462738
