11

N 1.5733438 0.0049867453 0.035901427
C -1.3932955 0.756861 -0.6441605
O -0.8038096 0.7226505 1.0358541
C -0.822022 -0.39031982 0.10767207
C 0.57212347 -0.8770141 -0.23050079
O 0.7266773 -1.9608732 -0.76104057
H 1.4113293 0.7972511 0.63498795
H -1.4710426 -1.2099936 0.40825486
H 2.52078 -0.2985143 -0.13673116
H -1.7328917 1.1712185 0.7185283
H -0.58119243 1.2837472 -1.1687657
