11

N 1.6182609 -0.06533338 -0.2935468
C 0.47737232 0.1787846 -0.9901092
O 0.36915332 0.14280224 -2.1990438
C -0.71817917 0.46812722 -0.1160692
C -1.1585983 -0.5193003 0.874386
O -0.46787187 0.65802854 1.2722162
H 1.6586435 0.18592161 0.6821859
H 2.4739227 -0.18365508 -0.8131951
H -1.4490292 1.1382974 -0.5630366
H -2.2096856 -0.56037575 1.1574699
H -0.59398866 -1.443297 0.9887424
