17

C -1.92558333 1.50340887 -0.07185464
N -0.03632301 0.21514878 -1.35167846
C -0.10704807 0.03462758 -0.09070653
O -1.02540523 0.67246395 0.65417949
N 0.65850652 -0.81384704 0.68541885
C 0.69343961 -0.72127746 2.13120816
C 0.95100587 -0.54643794 -2.08787589
H -2.59023962 1.92922772 0.68246503
H 1.19120055 0.18812785 2.49013129
H -1.38931975 2.29328011 -0.60332285
H -2.49769917 0.92047696 -0.79991613
H -0.32312581 -0.73839759 2.52839459
H 1.22870854 -1.59281141 2.51886695
H 1.51246255 -1.10626902 0.24323729
H 1.98399690 -0.29649561 -1.79415035
H 0.81991316 -1.63424932 -1.98380562
H 0.85551008 -0.30697651 -3.15059118
