12

C -0.35095942 -1.1050801 0.9803265
C -0.25883305 -0.62749755 -0.467136
N -0.26453185 0.8216432 -0.581293
C 0.8777298 1.5512735 -0.4950428
O 1.9932917 1.0781878 -0.41138512
H -0.3492965 -2.1983104 1.0238926
H -1.2701461 -0.7460057 1.4562535
H 0.5059015 -0.73084307 1.5493016
H -1.0934587 -1.0170648 -1.0601335
H 0.67025733 -0.9809451 -0.92400867
H -1.1437869 1.3141626 -0.5411827
H 0.6838323 2.6404796 -0.5295925
