12

C 0.15934929 1.0442331 0.2997451
C 1.1064578 0.19618896 -0.54777884
N -1.0598426 0.236643 0.22373606
C -0.83229375 -1.0595169 -0.03840471
O -0.08590599 -1.9423306 0.6140507
H 0.7798691 -1.5013901 0.59490526
H 2.1630707 0.3149014 -0.27435347
H -1.9367236 0.63706493 -0.08496273
H -0.09001984 2.0656097 -0.040438723
H -1.6945384 -1.5673014 -0.47787476
H 0.98666024 0.45338795 -1.6068358
H 0.5039168 1.12251 1.338212
