9

N 1.1143149 -0.9801653 -2.1861093
C 0.89806056 -0.5102059 -1.1526898
C 0.6156747 0.053062912 0.15445
C -0.71034956 0.69090015 0.37891284
N -0.3928995 -0.57899284 1.004463
H 1.4889365 0.42756635 0.6816692
H -0.76812786 1.54235 1.0532303
H -1.404435 0.7081161 -0.45674402
H -0.84117484 -1.3526314 0.5228183
