9

N -0.32507754 0.16033493 -2.00456826
C -0.27876068 -0.24712734 -0.86139335
C 0.84856331 -0.05462848 1.25940079
C -0.34214616 -0.67194179 0.43205807
N -0.45553578 0.42521893 1.42591881
H 1.49343302 0.64094741 0.68830374
H -0.69066382 1.32789547 0.99800042
H 0.49124338 0.07198519 -2.60179036
H -0.74105583 -1.65268424 0.66407066
