11

O 0.66518781 -0.34675314 -1.12164078
C -0.70943758 -0.38495604 -1.23132552
N 2.14442190 0.19296913 0.60626751
C 0.97291423 0.05415921 0.16660712
C -0.32061620 0.28834340 0.92308550
C -1.35180705 -0.04069275 -0.12113057
H 2.83328169 -0.02937656 -0.10805957
H -0.37006027 1.32264432 1.27721231
H -0.36842551 -0.36118404 1.80328925
H -2.42346838 -0.00551279 0.00926280
H -1.07199074 -0.68964074 -2.20356827
