11

C 1.88328317 0.49947713 -1.66444735
C 0.98674304 1.29129940 -0.94797850
C 0.01729454 -0.06056234 0.74216064
O 2.67076850 0.38575913 -2.52433220
C -1.41196864 -0.56737124 0.57825214
N 0.20315096 1.18215245 -0.00642234
H 0.74580536 -0.81644965 0.41426914
H -1.61119392 -0.83430692 -0.46447001
H -1.56409467 -1.45957615 1.19558414
H -2.12807870 0.19998964 0.88530771
H 0.20829046 0.17958847 1.79207669
