11

O 0.5847816 -1.9614156 -1.0433669
C 0.6320928 0.5727004 1.0270326
N -0.6974965 0.017411357 -0.75627327
C 0.6247645 -0.5997186 -0.82330304
O -1.6204711 1.5059414 0.78052384
C -0.6598063 0.72486466 0.3000821
N 1.37914 -0.24393156 0.40071088
H -2.3698254 1.463586 0.16744134
H 0.8920863 1.0617075 1.960254
H 0.05424149 -2.3671825 -0.34389204
H 1.1804925 -0.17396258 -1.6692094
