11

O -1.5722498 0.061058763 1.8028972
C -0.7007065 0.017183375 0.7824135
N 0.398443 0.71143246 0.663202
C 0.9211054 0.30044883 -0.5408251
O 2.079842 0.8168131 -0.99703526
C 0.14042075 -0.63770515 -1.1456145
N -0.92667 -0.80939573 -0.25251806
H -1.2213473 0.70291406 2.4329937
H 2.3741884 1.4463794 -0.32629627
H 0.22091651 -1.1810802 -2.0721734
H -1.7139425 -1.4280487 -0.34704408
