11

N 1.5927712 0.57349455 1.7629086
C 0.5666958 0.13102804 1.3436432
O 1.1031122 -0.5693046 -0.25566033
C -1.1594617 -0.20798506 -0.10932276
C 0.075816356 0.028874293 -0.992155
O -0.72561604 0.018202243 1.2635386
H -1.9880749 0.47903526 -0.29481363
H -1.4945923 -1.2435669 -0.15789156
H -0.05400168 -0.44974586 -1.9695958
H 0.2423228 1.1083752 -1.1403332
H 1.8410281 0.1315928 0.5496819
