17

C -0.94801384 1.018954 -1.659822
N -0.4563794 0.4529502 -0.40963992
C -1.3800552 -0.4428205 0.26262945
O 1.5818132 1.2017976 -1.0283227
N 1.647004 -0.20731805 0.6671406
C 0.90292096 0.40369663 -0.17946172
C 1.1579927 -1.076539 1.7043467
H 0.6240117 -1.9584504 1.31999
H -0.9919399 0.26712543 -2.4604986
H -0.29597974 1.8310807 -1.9828734
H -1.3170346 -1.4804474 -0.10229639
H 2.0259328 -1.4478223 2.2579546
H 2.4992487 1.0814623 -0.75024796
H 0.51589876 -0.55855507 2.435115
H -1.221675 -0.4317143 1.345423
H -2.3955724 -0.07940064 0.07563485
H -1.9481726 1.4260008 -1.4950721
