9

O -0.9447505 0.93389654 -0.16047966
C -0.8919628 -0.35596398 -0.4488692
C 0.30537206 1.2005062 0.41329488
O -1.7062784 -1.1785144 -0.97216046
C 1.0333166 0.06570822 0.4351381
N 0.2457532 -0.93320185 -0.13136762
H -0.5473187 -1.8531013 -0.667676
H 2.033589 -0.09682286 0.8052891
H 0.47227967 2.217493 0.72683084
