9

O -0.85617717 0.37758987 -1.00780203
C -0.64222268 -0.90965388 -0.57373280
C 0.25119089 -0.91313876 0.41962795
O -0.02977639 2.42107226 -0.40567624
C -0.06951477 1.22990004 -0.26457494
N 0.60920072 0.42336046 0.61603207
H -1.19472129 -1.69258030 -1.06738451
H 0.66338426 -1.72205234 1.00003298
H 1.26863649 0.78550289 1.28347765
