9

O -1.154812 -1.2861373 -1.0807879
C -0.3786681 -0.4750606 -0.34594694
C 0.47768006 -0.79218113 0.6529696
O 1.029314 0.39367127 1.081561
C 0.46906704 1.3323905 0.3152584
N -0.37824354 0.8869862 -0.5559975
H -1.6324629 -0.7221628 -1.7035958
H 0.7993818 -1.6932813 1.1479857
H 0.7687437 2.3557754 0.48855358
