10

O 0.56820569 0.81420522 -1.26469097
C -0.27911024 0.15299085 -0.38573370
C 0.29100193 -1.20000554 0.00791591
O 1.33158490 -1.58410185 -0.46988849
C -0.50466115 0.95277551 0.89622634
O -1.27810020 0.59577895 1.74783770
H 1.31488259 0.21395538 -1.43114041
H 0.11635447 1.86678367 0.97783132
H -1.27244517 -0.03246237 -0.82698378
H -0.28771286 -1.77991981 0.74862570
