10

O -1.437141 1.4087425 1.6645566
C -0.26259 -1.3717277 -0.13955307
O -0.7489472 1.226301 -0.5317955
C 0.23586547 -0.21136577 0.6566466
C -0.79691356 0.8914186 0.8129762
C 0.29435626 0.26881433 -0.7730241
H -0.25190404 -0.5895117 -1.373448
H 0.6472472 -1.9642452 -0.3589459
H 1.2086148 0.6129426 -1.2517712
H 1.111412 -0.27136832 1.2943581
