10

O 0.9545662 2.091603 -1.1613235
C 0.67199486 1.1140403 -0.5481987
O 1.1286333 0.7535929 0.7087709
C 0.4997576 -0.5363324 0.56741077
C -0.96519375 -0.36880764 0.5064403
C -0.12069548 -0.14717942 -0.74350345
H 1.0766298 -1.4052246 0.8491517
H -1.5551306 -1.281012 0.4742778
H -1.4309496 0.47197828 1.0149044
H -0.25961247 -0.69265854 -1.6679304
