10

O 0.11268351 2.58118050 -0.13303191
C 0.18797998 1.39820910 -0.19229314
O 1.16268350 0.64852606 -0.75499787
C 0.81891834 -1.28855773 0.72168326
C -0.67188820 0.22846563 0.27787284
C 0.45662884 -0.59516187 -0.46267693
H 0.16635993 -2.18729400 0.72562281
H -0.69878377 0.15678534 1.37062522
H -1.66543905 0.12063400 -0.15669095
H 0.13085678 -1.06278715 -1.39611351
