10

C 1.6978337 -0.1803404 0.9969386
C -0.80640435 0.024530666 -0.6769558
N 1.1903266 -0.8472781 0.10712823
C 0.18378009 -0.98271316 -0.69088537
N -0.83108366 0.90211695 1.1729133
C -0.756571 1.3260119 0.0054418063
H -0.7533146 2.3470063 -0.39805204
H 1.6829515 -0.52862453 2.0290513
H -1.7355983 -0.21732168 -1.1959096
H 0.1280802 -1.8433878 -1.3496703
