11

O 1.3691247 1.1993939 -0.42241448
C 0.6965163 0.21487512 0.30990416
C -0.79469204 0.526325 0.5857976
N -1.1154797 -0.7123619 -0.12664883
C 0.16823502 -0.974286 -0.5232184
O 0.6725451 -1.772383 -1.2757589
H 1.9749424 0.7500063 -1.0269488
H 1.2491939 -0.09941199 1.2049882
H -1.1019255 0.5316619 1.6339908
H -1.1225752 1.4356673 0.077246934
H -1.9958849 -1.0994866 -0.4369383
