11

O -1.4958901 0.8804176 -1.4082174
C 0.05153086 -0.68914074 -0.5144062
C -0.9206581 0.46442208 -0.42097342
N -1.0360328 0.97994345 0.8279246
C 1.4556848 -0.5035189 -0.14023705
O 0.55823344 -1.2055951 0.7097109
H -0.67642534 0.45471075 1.609384
H -1.7281691 1.6961062 0.9831725
H 2.2221735 -1.1147962 -0.6135654
H 1.7758231 0.46641424 0.23637629
H -0.20626988 -1.4289634 -1.2691685
