11

C -0.0732934 0.8851845 1.8153627
C 0.07465781 -0.011269459 -0.2616605
N 0.67324024 0.8250395 0.544188
C 0.47442898 -0.44322702 -1.625294
C -1.1146263 0.061382655 1.5628978
O -1.0558509 -0.4474178 0.26332223
H 1.3262601 0.15162776 -1.9581026
H -1.9813526 -0.25438428 2.121426
H -0.3576644 -0.31879634 -2.3250527
H 1.2759151 1.0528928 1.4819659
H 0.7582852 -1.5010324 -1.6190524
