11

C -0.89719031 -1.19536624 -1.51297186
C -1.59365810 -1.17146962 -0.34691777
N 0.18118832 -0.33835111 -1.12518503
C 1.01817425 1.00316670 0.85159533
C 0.09276223 0.10842284 0.11251589
O -0.98793352 -0.37052910 0.65784053
H -2.51217151 -1.63070401 -0.01788021
H 1.85519429 1.29111277 0.21062815
H 0.94233121 -0.10036132 -1.74510297
H 1.40725417 0.49770995 1.73887356
H 0.49404895 1.90636879 1.17660423
