11

C -0.53218657 -1.0783424 -1.4116658
C -0.017473804 -0.2501973 -0.2862505
N 1.1581122 -0.2619734 0.24850793
C 1.091158 0.6927678 1.2545705
C -0.14257981 1.2356817 1.2670227
O -0.8710669 0.63962805 0.27751362
H -1.4264394 -1.6326702 -1.1097713
H 0.2415501 -1.7870045 -1.7122445
H -0.798241 -0.4566359 -2.2717793
H 1.9387655 0.9106933 1.8891687
H -0.64159834 1.9880525 1.8549278
