11

C 0.067765094 0.09933021 0.13624093
C -0.58535355 -1.0548083 -1.751478
N 0.36071688 -0.18872373 -1.1169685
C -1.4367214 -1.2130432 -0.7048381
C 0.811175 0.95135325 1.0977974
O -1.0387489 -0.5049263 0.46055263
H -2.3545656 -1.7620702 -0.56714207
H 1.1104887 0.36632082 1.9708843
H 0.18011796 1.776172 1.4406577
H 1.7048223 1.3634984 0.6225235
H 1.1803039 0.16689697 -1.5882295
