12

O -1.3543553 -0.489792 -0.4182194
C 0.29645658 1.2762439 0.14863405
C -0.85430974 -1.5444095 -1.0087748
O 1.586053 0.76079226 -0.059178594
C -0.72312605 0.26499718 0.651369
O 0.37361673 -1.780953 -0.49772277
H 0.71573484 -2.542048 -0.9823669
H -0.10810077 1.7560625 -0.7538917
H -0.2713524 -0.42202073 1.3723462
H -1.5716987 0.7745751 1.1122333
H 0.39914438 2.0528185 0.91568065
H 1.5119374 -0.1062662 -0.4801088
