12

O 1.03018324 -1.69703191 1.17212454
C 0.91938909 -0.77524209 0.16495134
C -0.36563543 1.13608183 0.24047574
O 0.86571554 0.55381743 0.63458568
C -0.77270729 0.27417298 -0.94582325
O -0.25184485 -0.99381138 -0.58427489
H -1.85235493 0.18184900 -1.08270997
H 0.21253659 -1.66560256 1.68858650
H -1.10016493 1.07815945 1.05284358
H 1.82011684 -0.90625985 -0.44861445
H -0.19255140 2.18592496 -0.01489655
H -0.31268264 0.62794183 -1.87724827
