12

O -1.2609289 -0.66001683 1.2321565
C 0.12750253 -0.48553988 1.185221
C 0.5841787 0.7038516 0.34424645
O 0.85713875 0.4010767 -1.0455978
C -0.14839579 0.027297596 -1.825875
O -1.2869599 -0.19222014 -1.4848611
H -1.5783602 -0.6350073 0.31532845
H 0.6599626 -1.385217 0.83502764
H 0.4502938 -0.30046657 2.2154198
H 1.5498677 1.0767431 0.6936447
H -0.16255124 1.5010166 0.3966358
H 0.20825174 -0.051518094 -2.8613462
