11

O -1.6848494 1.9886863 -0.25846967
C 0.0075489064 -0.71781325 1.2093744
C -0.90135676 1.0716462 -0.09099886
C 1.0422461 -0.3478977 -0.7799478
N -0.8987684 0.32698545 1.0891025
C 0.1148318 0.6423655 -1.0448267
N 1.0522702 -1.0270265 0.3693214
H -0.8078093 -1.3959402 0.796956
H 0.1359254 1.1443033 -2.0083303
H 0.15563507 -1.0516167 2.2405603
H 1.7843267 -0.63369244 -1.5227414
