10

N -1.74485 -0.54327697 -0.4983767
C 1.3544393 0.51890165 0.47147644
N 0.36062884 0.60406035 -0.3975085
O 2.2756104 1.3443686 0.21174003
C -0.52448046 -0.33560717 0.059552412
O 1.1733776 -0.38266104 1.409911
N -0.10520709 -0.9790301 1.1266179
H -1.8128949 -0.36432523 -1.4882461
H 1.2509004 1.5027317 -0.7214672
H -2.2275236 -1.3651618 -0.17369945
