10

C -0.39330068 0.11634595 -0.29651189
O -1.09894864 0.69521172 -1.30269494
C 0.85835925 0.44843297 0.03576411
O 1.54259550 -0.32362263 0.97000008
N -1.14293085 -0.83960781 0.36760547
H 1.61668523 0.18599227 1.78902807
H -0.49909235 1.24871530 -1.81797683
H 1.39508511 1.25967119 -0.45030216
H -1.72653511 -1.38442436 -0.25382860
H -0.55191751 -1.40671460 0.95891683
