10

C 0.6337878 -0.33213404 -0.65356845
O -1.2519405 1.1234257 -0.747383
C -0.37251112 0.33363998 -0.07785224
O 1.3677603 -1.2426925 0.10089402
N -0.6253947 0.32902664 1.2833507
H -0.11570864 -0.4160621 1.7368029
H 0.85907507 -0.2458462 -1.7138715
H -1.1244737 0.98854685 -1.6946259
H -1.6135244 0.32672125 1.5005918
H 2.2429292 -0.8646258 0.2656619
