10

C 0.59518725 1.385742 -0.58244765
O -0.4026901 0.38358578 -0.38965333
C -0.02836864 -0.62627673 0.43190846
O 1.052936 -0.71514755 0.96368104
N -1.0637882 -1.5038217 0.5818514
H 0.85244113 1.8650162 0.36615643
H 0.1488366 2.1112456 -1.2642199
H 1.4998844 0.9564348 -1.0228846
H -1.8273491 -1.4644984 -0.07408341
H -0.82708937 -2.39228 0.9896917
