11

C -0.12218759 -0.97859641 -2.06626751
C 0.24041108 -0.92603104 -0.77212839
C 0.53918323 0.38207124 -0.29426083
C 0.44815489 0.55273473 1.14077689
O 1.41439520 0.07921887 1.72931025
N -0.56349846 1.24654804 1.73684137
H 0.00434209 -0.09363536 -2.68680153
H -1.12882932 1.84930961 1.15841866
H -0.57741506 -1.85806540 -2.51385017
H 0.14366175 -1.79542113 -0.12005810
H -0.39821750 1.54186683 2.68801830
