11

C -0.04688527 -1.4931324 -0.8627966
C -0.1828246 0.75879806 2.0013897
C 0.14386964 1.0302696 -0.24951477
C -0.029482463 -0.27772233 -0.009906481
N 0.043132152 1.6355082 1.00409
O -0.22498636 -0.4298697 1.3426605
H 0.10550021 -1.2194492 -1.9082296
H -1.004536 -2.0159574 -0.77374625
H 0.32524946 1.5773103 -1.1608369
H 0.12823813 2.6238184 1.1805258
H 0.742725 -2.1895735 -0.5636354
