11

C 1.00637771 -0.80726240 -1.14524750
C 0.21793091 -0.16254274 -0.06467623
C -0.86922465 0.62221906 -0.04127365
C -0.18819090 0.28931845 2.12029224
N -1.09032788 0.87930602 1.31261201
O 0.61827568 -0.35648360 1.23644599
H 2.04140273 -0.45136175 -1.13688381
H 0.56585399 -0.57952473 -2.11742464
H 1.02599659 -1.89409190 -1.01568050
H -1.49089885 1.01460721 -0.83007839
H -1.83719550 1.44581636 1.68191470
