11

C 1.0104036 -0.80992067 -1.1423477
C 0.21712266 -0.16429234 -0.058757555
C -0.8832606 0.6308515 -0.05197921
C -1.092629 0.883893 1.3315945
N -0.20023249 0.29433894 2.0751033
O 0.62885326 -0.369937 1.201373
H 1.0110319 -1.8991765 -1.0327047
H 0.5809435 -0.5576852 -2.1131866
H 2.0500395 -0.4684331 -1.120475
H -1.4572966 0.98382324 -0.8951267
H -1.8649759 1.4765381 1.8065069
