12

O 0.40607405 1.1762862 -2.1693628
C 0.754886 1.2901419 -0.81259817
C 0.20751776 0.17156719 0.021351852
N -0.7509286 -0.6117876 -0.43019047
N -0.98120344 -1.4189171 0.6246979
C -0.16550733 -1.0952317 1.6434333
N 0.60365283 -0.08686499 1.2984308
H -0.48378587 0.80506206 -2.2122314
H 0.40770808 2.2407763 -0.37830606
H 1.8471 1.2857174 -0.7451908
H -1.6753875 -2.145729 0.5667821
H -0.17012599 -1.6110204 2.5931833
