12

O -2.2771153 -0.5600346 -0.75873244
C 1.7797524 -0.11969428 0.9211481
C -1.1271296 0.097228475 -1.2271965
N 1.2127331 -0.24064943 -0.3972307
N -0.36155406 0.31288722 1.160864
C -0.014039202 0.02306596 -0.22463158
N 0.68395793 0.23944876 1.8263118
H 2.23932 -1.0538267 1.2575688
H -1.3276654 1.1592066 -1.4428742
H 2.5350153 0.67142934 0.96302974
H -2.5282938 -0.143609 0.07502378
H -0.81498176 -0.3854524 -2.1532807
