11

O -1.5699099 0.06074915 1.8024498
C -0.6987909 0.016825318 0.78294253
N 0.39950454 0.7120606 0.6635243
C 0.92000043 0.3002002 -0.5401893
O 2.0781703 0.8172893 -1.0005007
C 0.14053693 -0.63912594 -1.1439805
N -0.9262666 -0.81077117 -0.2500911
H -1.222416 0.7028903 2.4339569
H 2.3743005 1.450651 -0.3326371
H 0.22028421 -1.1833748 -2.0699317
H -1.7154133 -1.427394 -0.34554335
