11

O 0.27104402 1.36621418 1.85887863
C 0.20331138 0.69618224 0.71865069
N -0.76061371 -0.25149930 0.60730570
C -0.53718102 -0.92645635 -0.65157789
O 1.07384921 -0.21171434 -2.33827602
C 0.60529349 -0.06206972 -1.24011551
N 0.98449825 0.89898861 -0.29352562
H -1.21384273 -0.65325574 1.41111948
H 0.98636703 2.01332320 1.75942243
H -0.19961637 -1.96075201 -0.52524781
H -1.41310936 -0.90896082 -1.30663431
