11

O -0.119201556 -0.9272715 -2.406547
C -0.08562565 -0.44246298 -1.3057619
N -0.33423162 0.8960713 -0.9741253
C 0.24627723 -1.229066 -0.013521619
O -0.30612624 2.0611355 1.0263737
C -0.2037348 0.9503566 0.31269556
N 0.03800375 -0.20326522 0.98379076
H 1.2811103 -1.5864825 -0.045935582
H -0.4279304 -2.0823827 0.104589164
H 0.4158232 -0.2126163 1.9165857
H -0.50436413 2.7759838 0.40185606
