12

C 0.83780676 0.8771457 -0.89167625
C 0.5896273 -1.7854778 0.46778744
N -1.2918619 1.2550969 0.21953675
N -0.39913338 -0.87007487 0.22894457
C -0.20848115 0.45480278 -0.17075524
O 0.37721044 -2.930348 0.79702604
H -1.468358 1.2459409 1.2174164
H 0.97939086 1.9358683 -1.0845792
H 1.599905 -1.358929 0.3434933
H -1.2013965 2.204764 -0.11718993
H 1.5352081 0.1759053 -1.3359376
H -1.3499178 -1.2046944 0.32593367
