12

C 1.19238716 0.59382359 0.70141126
C -0.02405941 0.50673201 0.14869810
N -1.05748755 1.43751684 0.32808098
N -0.40541588 -0.49329507 -0.74903354
C 0.09631483 -1.76572220 -0.79206375
O -0.25243284 -2.59628891 -1.60001223
H 1.39487356 1.33560812 1.46750924
H 2.00914504 -0.03582638 0.36686325
H 0.84004624 -1.95414749 0.00129206
H -1.92406280 1.02794263 0.65716275
H -0.77673573 2.20412934 0.92550891
H -1.09257255 -0.26047261 -1.45541696
