10

N 0.22362845 1.768745 0.39180237
C -0.20071264 0.47957772 0.16277693
N -1.401591 0.04867586 0.36102048
O -1.3335176 -1.3402082 0.106989615
C -0.08091621 -1.7001746 -0.25868762
O 0.28259987 -2.8121781 -0.52330065
N 0.64449954 -0.5139969 -0.25353143
H 0.7531296 2.176816 -0.36636978
H -0.5355476 2.3703547 0.68024474
H 1.6484275 -0.47761106 -0.30094478
