9

O 0.21659568 1.54855538 -1.33602827
C -0.43353091 0.36467871 0.69820495
N 0.41504427 -1.59168562 0.04454696
N -0.22347010 -0.94516072 1.00794090
N 0.64015877 -0.73503239 -0.91017889
C 0.13680922 0.46497989 -0.54629738
H -0.48725089 -1.44644406 1.84118597
H -0.93612082 1.06254062 1.34694512
H 0.67176473 1.27756840 -2.14631909
