9

O -0.4176468 0.53870255 1.8697258
C -0.8748655 0.14519647 -0.49520862
N -0.08158491 -0.12705046 -1.5401332
N 1.22649 -0.2769791 -1.0100032
N 1.1953734 -0.11324089 0.29420418
C -0.056157336 0.21085255 0.6260988
H 0.3762392 0.5071885 2.4219942
H 0.5716696 -1.179822 -1.5739799
H -1.9395176 0.2951522 -0.59269804
