9

O 0.81744725 -1.6748437 -0.7632908
C 0.269654 -0.5624603 -0.24827805
N -0.3098566 -0.5131406 0.9398257
N -0.6923285 0.7577082 1.0219709
N -0.40938938 1.5246278 -0.0065898024
C 0.21316671 0.7066772 -0.849798
H 0.70251834 -2.3861613 -0.11938947
H -1.1717875 1.1098496 1.8341776
H 0.58057564 1.0377433 -1.8086278
