10

N 0.63376141 -0.05297376 -0.47736163
C -0.07991651 -1.10502003 -0.74228623
N -1.30710998 -0.05708522 0.71520479
O -1.22661520 -1.20686683 -0.10884143
C -0.18936108 0.56544789 0.42979231
O 0.21449778 -2.08525671 -1.57889717
N 0.13751722 1.78385975 0.95719600
H 1.07074163 -1.85770301 -1.96962590
H -0.38146254 2.05051469 1.77859392
H 1.12794703 1.96508297 0.99622540
