10

N -0.8607476 -0.82229316 -1.6432402
C -0.5228545 -0.27895677 -0.43487546
N 0.78288305 0.020596536 -0.13785438
O -0.5803664 0.42726785 1.5663894
C 0.64242977 0.43298423 1.0854738
O 1.5902092 0.85628754 1.904003
N -1.3982286 -0.055562004 0.5149589
H 2.42143 0.7869875 1.4121975
H -0.23362543 -0.5818731 -2.3943942
H -1.8411294 -0.7854387 -1.8726583
