11

O -0.23705429 2.3615153 0.16773356
C -0.13596652 1.1741432 -0.067099355
C -0.91942614 0.07389864 0.5468847
N 0.6619932 0.52037305 -0.97159386
C 0.6547918 -0.84292495 -0.59263843
O -0.819926 -0.03979595 1.8715972
H 0.62249446 -1.5662614 -1.4111172
H -1.5572764 -0.57959497 2.1896944
H -0.6809516 -0.9219499 -0.15687138
H 1.0760874 0.9363326 -1.7927257
H 1.3352338 -1.1157354 0.2161359
