11

O 1.54365329 0.17067505 -1.77212899
C 0.65180917 0.11162077 -0.93531127
C -0.34034223 0.64764206 1.29575516
N 0.64155703 0.79235894 0.23343916
C -0.60523059 -0.62642178 -1.33364870
O -0.39286012 -1.90471112 -1.09794271
H 1.46408774 1.36025143 0.39430081
H 0.00316193 -0.03563186 2.08124745
H -0.55798006 1.62288265 1.73893005
H -1.26719603 0.25569259 0.86625647
H -1.14066007 -2.39435888 -1.47089748
