11

O -0.3184321 -1.733944 -1.371051
C -0.47787124 -0.42942387 -1.4575875
C -0.45808548 0.48807532 1.3289826
N 0.63095266 0.7332964 0.39761427
C 0.74698186 0.2076206 -0.8432279
O 1.7213844 0.34222633 -1.5723083
H -0.21212362 -0.30150518 2.0486505
H -1.0341558 -2.1456778 -1.877282
H 1.4445318 1.2471104 0.71228755
H -0.6992408 1.4056079 1.8719766
H -1.3439417 0.18661381 0.7619454
