11

O -0.6548807 0.49523404 1.5911324
C -0.74949175 -0.65630394 0.7232669
C 0.23114216 1.1969529 0.6994284
N 0.62924147 -0.26739112 -1.3784875
C 0.16256523 0.03136322 -0.25074875
O 0.37226322 -1.4723431 -2.0347707
H -1.7690591 -0.83869606 0.36424482
H 1.2138617 1.3860447 1.1446857
H 1.1097277 -0.4415578 -2.3716094
H -0.19929226 2.135046 0.33273083
H -0.34607762 -1.5683489 1.1801273
