11

O 1.3702209 1.199501 -0.4222687
C 0.698063 0.21300201 0.31038323
C -0.7938608 0.526178 0.5859877
N -1.1139301 -0.7129899 -0.12630275
C 0.1678843 -0.97042924 -0.5250313
O 0.66653734 -1.7686347 -1.2770118
H 1.9738351 0.7441673 -1.0242722
H 1.2504752 -0.096687324 1.2065226
H -1.1006703 0.52980536 1.6349775
H -1.1245314 1.4347548 0.07772348
H -1.994023 -1.0986676 -0.4407077
