12

C 0.76329655 0.21211990 0.24474520
C -0.53434068 -1.10975112 -1.36576297
C -0.19433275 0.66402727 1.34403254
O -0.53708974 -2.11688305 -0.68568284
N 0.10304639 0.04297034 -1.03885043
H 1.20644927 -0.75434092 0.50519718
H 1.57670276 0.93294311 0.11386629
H 0.33821008 0.77489899 2.29386022
H -0.98717773 -0.07908244 1.47340070
H -0.03657382 0.84481337 -1.63459220
H -1.04569195 -1.04027938 -2.34559656
H -0.65249899 1.62856374 1.09538321
