12

C 1.4007057 -0.29275918 0.8829533
C 0.3371663 -0.50402147 -0.18679257
C -0.5901597 0.695356 -0.3177253
O -0.22386396 1.8369182 -0.110856906
N -1.866045 0.39581186 -0.70116735
H 2.113995 -1.1220491 0.8895017
H 1.9409707 0.6391815 0.69712436
H 0.95013094 -0.22402135 1.8782597
H -0.2445656 -1.4138322 0.01150879
H 0.8104689 -0.6418457 -1.1679096
H -2.142249 -0.53329915 -0.9678893
H -2.4865549 1.1645604 -0.9070065
