11

O -1.5579317 -0.41058037 -1.1716061
C -0.5482017 0.73439664 0.975075
C -0.6132946 -0.24061672 -0.19796425
O 0.64851546 0.10297958 1.4348644
C 0.7827786 -0.34045696 -0.46026126
N 1.7498088 -0.561717 -1.1490822
H -1.3808455 0.64252317 1.6782231
H 2.6169746 -0.9559903 -0.81639695
H 0.009162321 -0.9018167 0.91447777
H -1.3419029 0.14234497 -1.9345441
H -0.3650639 1.7889339 0.72721434
