9

O 0.10198811 0.22112468 1.3611149
C 0.17256987 -0.90895396 0.5540395
N -0.20709585 1.0471623 -0.7293098
C -0.11730676 1.2777414 0.5109302
C -0.032314304 -0.3932296 -0.86306655
O 0.357436 -2.002878 0.983702
H 0.83190775 -0.6303052 -1.4914811
H -0.19571696 2.2460334 0.9953328
H -0.91146785 -0.8566952 -1.321262
