9

O 1.98655435 0.32119916 -1.02829148
C 0.00536847 -0.92590946 -0.20789526
N -1.11714292 -0.36909564 0.53580820
C 0.94076534 0.24650994 -0.46597304
C -0.85278473 0.86116866 0.66225402
O 0.31631980 1.34043118 0.12295335
H -0.32689088 -1.37252328 -1.15030137
H 0.51179412 -1.70683099 0.36773397
H -1.46398343 1.60505044 1.16371137
