9

O 1.7462058 0.5392604 -1.6394502
C 0.8900532 0.35484552 -0.819507
N 0.26578125 -0.8124263 -0.4444716
C -0.6724932 -0.5574068 0.55684364
C -0.61570835 0.7578712 0.78353626
O 0.32364345 1.3376311 -0.0370569
H 0.48894137 -1.6998888 -0.86049044
H -1.2786863 -1.3290273 1.0024588
H -1.1477371 1.409141 1.4581372
