12

N 2.1675644 0.39145786 -0.6948604
C 0.88668734 0.16572452 -0.28289318
N 0.7052728 -0.83926624 0.5889456
C -0.5389571 -1.021722 1.0066745
C -1.6092476 -0.23846184 0.5849744
C -1.2939507 0.76480347 -0.32324526
N -0.062142193 0.97888553 -0.769372
H 2.2902644 0.9618413 -1.5156559
H 2.8319194 -0.34700444 -0.53138375
H -0.6919808 -1.8381482 1.7116277
H -2.6190813 -0.40385872 0.9388154
H -2.0663483 1.4257488 -0.71362716
