12

N 0.6641204 -0.19896501 0.86019903
C -0.9672344 -0.52995884 -0.738371
N -0.47738618 0.7595296 -0.85800606
C -0.53505206 -1.0331502 0.7944642
C -0.21724664 -1.7399907 -0.3109943
C 0.5068346 0.83015686 0.0258699
N 1.3684341 1.8856883 0.03907042
H 1.9020563 2.0141544 0.8844405
H -0.22972764 -2.7660387 -0.6577301
H -1.8915529 -0.7360129 -1.2743919
H -1.1707127 -1.2005192 1.6671503
H 1.0474672 2.7151065 -0.43170112
