12

N -2.18066426 0.36914031 -0.37143634
C 1.16448891 -0.78515258 -0.32539240
N -0.22538738 -0.91046342 0.19912826
C 0.92057569 -0.45892858 1.04177763
C -0.83930116 0.35129352 -0.19912466
C 1.21633677 0.66349976 0.08166179
N -0.02427362 1.32963588 -0.29115497
H 2.13819689 1.23164689 0.10937095
H 1.75410287 -1.54323156 -0.82411981
H 1.25733408 -0.87364643 1.98286907
H -2.62859206 -0.52371064 -0.51476579
H -2.55281638 1.14991688 -0.88881379
