12

N 0.011553806 -0.8755667 0.39069766
C -0.90339696 0.2148193 0.07218618
N -0.34418088 1.2404608 -0.4428188
C 1.042405 0.79433966 -0.4569376
C 1.2822388 -0.15238847 0.6899399
C 1.0994823 -0.7020335 -0.61373186
N -2.2065606 0.05500647 0.39697716
H 1.8099083 1.4536545 -0.84375495
H -2.8573806 0.67953837 -0.052669257
H -2.520027 -0.8918943 0.5502195
H 1.9824679 -0.34359917 1.4925406
H 1.60349 -1.472337 -1.1826485
