11

N -0.4143432 -0.5235624 0.8801524
C 0.5901398 -1.9816127 -0.022095285
C 0.043235123 0.5963802 -0.058250416
N 1.0553122 -1.1666998 -0.84350365
C 0.2788219 0.4634351 1.3314701
N -0.7764015 1.540912 -0.67888105
N 1.1008857 0.0715402 -0.9664621
H 0.8072699 0.72490335 2.2394843
H -0.022209566 -2.8384418 -0.271424
H -1.1721504 1.2066665 -1.5461801
H -1.4905598 1.9064791 -0.06431027
