12

O 1.7545656 -1.3020393 0.6962487
C -0.5852432 0.9382978 -0.5112069
C 1.179248 -0.81589526 -0.24746236
O -0.78442657 -0.7971741 1.0965854
C -0.30640915 -0.5305428 -0.19484104
O 0.012468673 1.7590201 0.46025681
H -0.29921743 1.4166358 1.3117392
H 1.7013532 -0.57498527 -1.1933781
H -0.7954728 -1.1733494 -0.9461771
H -1.6742023 1.0811424 -0.5634895
H -0.04653073 -1.2171559 1.5722268
H -0.15613313 1.2160459 -1.4805019
