12

O 0.85984088 1.45615180 0.66816095
C -0.20211493 1.18282065 -0.21054621
C -0.53648088 -0.30791086 -0.17522686
O -0.83684601 -0.65652129 1.14977378
C 0.63984520 -1.13100269 -0.65496530
O 1.10906196 -2.00688516 0.03102484
H 0.11907200 1.48613216 -1.21336889
H 0.59248509 1.07651521 1.51892205
H 1.03131324 -0.90227484 -1.66482885
H -1.10982935 1.74801233 0.04554530
H -1.38492614 -0.51600693 -0.84881882
H -0.28142122 -1.42903057 1.35432806
