12

O 1.045559 1.1024303 -1.0095471
C 0.6006106 1.0154788 0.32039002
C -0.4459979 -0.088971965 0.44609717
O -1.4908127 0.18758024 -0.44891697
C 0.15875104 -1.43746 0.11220649
O -0.33237505 -2.1435773 -0.7341957
H 0.24007232 1.1365424 -1.5474342
H 0.159489 1.9586713 0.67223775
H 1.4723591 0.79195595 0.945296
H -0.80837697 -0.1349877 1.486909
H -1.6472512 -0.6390493 -0.9371529
H 1.0479726 -1.7486129 0.6941105
