11

O -2.1295466 0.67274004 -0.9573957
C -0.98344314 1.2914617 -1.0775557
N -0.0005118379 0.9892883 -0.2408933
C 1.8321953 -1.9008354 0.43214366
C 0.95253986 -1.0991639 0.57613117
C -0.096376985 -0.09012272 0.74716586
H -1.0803118 -0.54689014 0.61136746
H 2.6131978 -2.6182272 0.30871
H -0.05942281 0.32977197 1.7587
H -1.9317234 1.5115505 -1.8141804
H 0.8834037 1.4604269 -0.3441931
