11

N 0.90955025 0.81181216 -1.1330168
C -0.43539783 0.1310338 -0.85992694
C 0.9004689 -0.29977658 -0.54445904
N 1.6875358 -1.2632395 -0.032613948
C -1.2961563 0.7011819 0.2116136
N -0.8665942 0.79713553 1.4031296
H -0.95171565 -0.26345745 -1.7340186
H -2.29362 1.0304941 -0.10713937
H 2.6523912 -1.015329 0.13752413
H 1.2639105 -1.8595501 0.6597508
H -1.5703727 1.2296953 1.9991566
