11

O -1.97297209 0.59615451 -1.47165658
C 0.11963613 -0.50357056 -0.39436241
N -1.15953005 -0.78586303 0.34701653
C -1.22239371 0.00367871 -0.75224576
C 1.14661633 0.26640487 0.40723481
O 0.58538378 1.32459249 1.13770496
H 1.60574778 -0.39487792 1.14765342
H 0.51269965 -1.28485181 -1.04580149
H -1.60934432 -1.69574186 0.36511727
H 0.06028292 1.86774904 0.54155895
H 1.93387386 0.60632507 -0.28221984
