11

O 0.4572052 1.6992276 -0.5433057
C -0.228519 -0.40970945 0.4509268
N -0.7287841 -0.8689472 -0.8923652
C -0.106148444 1.0922931 0.58921045
C 0.52369654 -1.2299256 -0.52264583
O 1.478914 -1.8708005 -0.8524736
H -1.4601715 -1.5626413 -1.0123693
H -1.1010449 1.5333664 0.6985344
H -0.5831106 -0.941585 1.3344682
H 0.464977 1.3060248 1.505072
H 1.2829859 1.252697 -0.75505245
