11

C 0.11291033 -1.6227936 0.83322173
C -0.02915568 -0.3171078 0.13648121
C -0.14728107 1.3132509 -1.1806425
C -0.5622 1.8644829 0.06331809
N 0.14808862 -0.06024993 -1.1114395
O -0.3763713 0.75614965 0.8909873
H 0.32180357 -2.4023576 0.10180577
H 0.6339286 2.0740476 -0.5314204
H -0.8065187 -1.8520881 1.3773273
H -0.22654021 1.8176312 -2.1381202
H 0.93133587 -1.5709652 1.558481
