11

C 1.19675293 -1.04776102 -0.92256558
C 0.22433022 -0.21400889 -0.17286799
C -1.35945632 0.77858498 0.90082434
C -0.26064996 1.79554179 0.75327149
N -0.92376649 -0.46764306 0.26718361
O 0.66323269 1.12601361 0.09639770
H 0.77906325 -2.04205435 -1.07407533
H 1.41701980 -0.58456082 -1.88831280
H 2.13455695 -1.11991696 -0.36528560
H -2.28433786 1.15321801 0.44134276
H -1.58674510 0.62258669 1.96408736
