11

C 1.0098702 -0.8096109 -1.1440738
C 0.21676221 -0.16528657 -0.059160076
C -0.882954 0.6316617 -0.050890867
C -1.0910712 0.882933 1.3335264
N -0.200449 0.2913569 2.078492
O 0.6287569 -0.37464643 1.2022257
H 1.0093036 -1.8986251 -1.0360938
H 0.5802039 -0.5556959 -2.1150434
H 2.0494986 -0.46917552 -1.1225321
H -1.4564278 0.9882124 -0.8929691
H -1.8634933 1.4788764 1.806519
