12

C 1.0716962 0.1945714 0.7820278
C -0.31812283 0.5919784 0.35099357
N -1.0181643 1.5479227 0.8118916
N -0.9061303 -0.17149146 -0.66580486
C -0.39390445 -1.2482065 -1.3413815
O -0.9931291 -1.8411896 -2.2078083
H 1.417113 0.8637259 1.5728381
H 1.7799733 0.25697213 -0.051669482
H 1.0901653 -0.8305155 1.167153
H -0.5130845 2.049279 1.5351559
H -1.8407333 0.11736505 -0.9311682
H 0.6243215 -1.5304117 -1.0222275
