9

O -1.426369 -0.5190048 1.5903414
C 0.39781263 -0.13119489 -1.1305066
N -0.59330934 0.6372024 -0.4477154
N -0.0039876713 1.3561112 0.9109006
C -0.7557485 0.3622106 0.8928447
N 1.6332185 -0.052425805 -0.880561
H 2.1616626 -0.62236774 -1.5399957
H -1.3357627 -0.31864724 2.5343115
H -0.07751654 -0.7118838 -1.9296193
