9

O -1.89457041 1.11258279 0.07643771
C 1.20029492 -0.02836487 0.10954316
N 1.43328120 -0.82980753 -0.83825011
N -1.07007343 -1.17385712 0.38183214
C -1.16361323 0.06892811 0.37520283
N 0.06391128 -0.13422431 0.96767309
H 2.33554649 -0.61843353 -1.26272563
H 1.84626005 0.78565101 0.45857860
H -2.75103703 0.81752535 -0.26829153
