9

O 0.75121224 0.24469244 -2.0786707
C 0.26478624 0.10916057 -0.836549
N 0.9906822 -0.3161521 0.17661728
N 0.07914653 -0.28302023 1.1832199
C -1.104582 0.14952141 0.72112894
N -1.0280665 0.411305 -0.56757796
H 1.6813505 -0.0141492 -2.0563352
H 0.34714904 -0.5606443 2.1132462
H -1.9816784 0.2592863 1.3449208
