9

O 1.6805857 0.93110305 0.60611224
C 0.564368 0.30753833 0.19436169
N 0.43042272 -0.2475073 -0.9977261
N -0.8098672 -0.72864825 -0.95614034
N -1.4806195 -0.5308281 0.15613383
C -0.62588155 0.13583876 0.92536676
H 2.3245504 0.8954081 -0.113824
H -1.2090094 -1.2194513 -1.7393086
H -0.87454915 0.45654675 1.9250242
