9

O -0.4700807 -0.96772856 -1.7514493
C -0.20394054 -0.22934826 -0.6624654
N 0.3687235 0.50993097 1.2484207
N -0.08734603 1.5463156 0.55643785
N -0.43914956 1.0995975 -0.61387104
C 0.32341072 -0.6463797 0.536213
H 0.69041055 0.6568758 2.1907756
H 0.6483286 -1.6000836 0.9172667
H -0.83035654 -0.36917952 -2.4213283
