9

O 1.32889283 -0.12463359 -1.56318888
C 0.37923106 -0.10705665 -0.61463443
N -1.54077830 -0.50325272 0.28475108
N -0.83345102 -0.67365109 -0.79395101
N -0.78464538 0.16696338 1.14498719
C 0.44444318 0.45062656 0.63979026
H 1.20648130 0.98809742 1.17900047
H 0.96134237 -0.59232778 -2.32671119
H -1.16151601 0.39523452 2.04995620
