11

O -2.16977449 1.20099299 0.58443345
C 1.03806177 0.72952528 1.11421426
C -0.79419197 0.17875932 -1.14110435
C 0.36200144 -0.47255659 -1.05380860
N 0.74728637 -0.58188203 0.32058246
C -1.22846233 0.54495007 0.23137458
N -0.28160590 -0.03469671 1.14091005
H 1.57265230 0.33880734 1.99903596
H 1.01526420 -0.88043767 -1.81146393
H -1.32908647 0.46177884 -2.03695371
H 1.06785492 -1.48524108 0.65277965
