10

C -0.16615872 1.1841863 0.14158447
C 0.47884044 0.7853585 -1.0065424
N 0.4486768 -0.5328198 -1.4127351
N 0.10681028 -1.4689991 -0.6461786
C -0.19180275 0.22453646 1.1871026
C -0.07236784 -1.1079049 0.72670126
H 0.9433844 1.4557009 -1.7220236
H -0.45920545 2.2164695 0.30687988
H 0.12168818 -1.9317551 1.4141749
H -1.2098655 -0.82477283 1.0110366
