10

C -0.10589466 0.88534232 -0.35888196
C -0.73965741 1.35377053 -1.39561312
N -0.54051698 -2.72684103 -0.12163569
N 0.00374906 -1.90907997 0.45966395
C 0.61568616 -0.97301010 1.11357649
C 0.53776474 0.42253563 0.68857638
H -1.77509631 1.67254869 -1.32460673
H -0.25094125 1.44457132 -2.36281434
H 1.17805824 -1.29399511 1.98008189
H 1.07684851 1.12415788 1.32165350
