10

C 0.7963684 0.55097795 0.06391645
C -0.48392174 0.82994026 -0.029323127
N 0.008155507 -2.7825437 0.00018086316
N 0.6623045 -1.848097 0.04220941
C 1.395436 -0.7811584 0.09176399
C -1.7507402 1.1168424 -0.122863755
H 1.5061988 1.3730321 0.12747364
H -2.3684137 1.2294533 0.762909
H -2.2282104 1.2570176 -1.0897865
H 2.462823 -0.9454646 0.15352003
