9

N -0.25712165 1.2225063 1.5192654
C -0.36887792 1.1599768 0.16566306
O -0.7452422 2.0681171 -0.5427423
C 0.013636726 -0.14003155 -0.41050476
C 0.30129716 -1.1633737 -0.9760421
C 0.631811 -2.3417833 -1.6296164
N 0.9075038 -3.32812 -2.1715338
H 0.037620522 0.4360813 2.0757794
H -0.5206276 2.0866265 1.9697315
