9

N -0.07583435 0.72254954 1.27244165
C -0.33094171 0.83076774 -0.05294135
O -0.68631320 1.83517454 -0.62836065
C -0.14646310 -0.44858894 -0.80346350
C 0.07984243 -0.83502129 -2.07675550
C 1.14164493 -1.69335386 -1.03897692
N 0.14790892 -1.77624061 -0.22920380
H 0.11966394 -0.16590008 1.70611514
H -0.24950801 1.53061241 1.85114492
