10

O -1.82671541 -0.98839073 0.74106784
C -0.77480630 -0.37763767 0.17583926
N -0.67860068 0.03524136 -1.05373595
C 0.59081200 0.58724450 -1.12734338
C 1.23389860 0.49431516 0.06537541
N 0.33179923 -0.13992057 0.91553841
H -2.50100322 -1.05058191 0.04987322
H 0.95480945 1.02005503 -2.04906500
H 2.21233869 0.80353219 0.39828815
H 0.45746793 -0.38385714 1.88416208
