10

O -2.055749 -0.37238997 -0.70583916
C -0.79304 -0.06356946 -0.37536785
N -0.0059412895 0.7700353 -0.9895002
C 1.0656685 -0.13683902 0.7853361
C 1.1708217 0.7261827 -0.25817272
N -0.2255342 -0.65129834 0.70201415
H 2.0219812 1.330628 -0.54024225
H -0.6658657 -1.3251286 1.3066549
H -2.2631137 0.15795943 -1.4881506
H 1.7507724 -0.43558022 1.5632676
