9

O -0.08645657 -0.054804914 1.5841668
C 0.510089 0.22974181 0.32275745
C -1.018451 1.2715226 -1.5799794
C -0.340879 0.79289097 -0.7077566
C 0.33297935 -1.1508701 0.79460704
H 1.5038592 0.6708667 0.3947439
H -1.6276937 1.6934223 -2.3473399
H -0.46854356 -1.7520628 0.3696016
H 1.1950963 -1.7007067 1.1691992
