9

O 2.5046854 -0.3050003 -0.050923802
C 1.4276512 0.22101396 -0.13154435
C 0.21210475 -0.23585497 0.6643264
C -1.0249457 -0.094690785 -0.10630201
C -2.014418 0.039453134 -0.77823824
H 1.2546465 1.1006154 -0.78685004
H 0.16106686 0.39020672 1.5652292
H 0.37681258 -1.267442 0.99349445
H -2.8976035 0.15169886 -1.3691918
