9

O -1.4079752 1.3646677 1.4383823
C 1.8654408 -1.0897996 -0.8367305
C -0.31914735 -0.36676732 0.39318436
C 0.8566308 -0.76233894 -0.25349778
C -0.9609813 0.9478549 0.2939784
H -0.7545898 -1.0388483 1.1331215
H -1.7231791 0.6785354 -0.5226777
H 2.7493944 -1.381429 -1.3610045
H -0.30559307 1.648125 -0.284756
