10

N -1.1079289 -0.619041 1.110877
C -0.223377 -0.15404482 0.1611032
N 1.1374546 1.1229976 -1.0515099
N 0.4957211 -0.9851387 -0.60770327
N 1.3591408 -0.1263399 -1.3856214
C 0.14091231 1.158379 -0.16689183
H -1.8757694 0.000879841 1.321209
H -1.4094768 -1.5698243 0.95388716
H -0.25837722 2.0942483 0.19913457
H 1.7417002 -0.9221159 -0.53448445
