10

N 0.9753983 1.420365 0.5538212
C 0.2583241 0.32029456 0.10038115
N 0.24298805 -0.024291934 -1.1814634
N -0.4735393 -1.1419057 -1.1858023
N -0.9370595 -1.5490054 -0.026994988
C -0.48541775 -0.6363441 0.8273177
H 0.5059385 1.9489555 1.2733563
H 1.253958 2.0230107 -0.20964107
H -0.6455233 -1.6545423 -2.0357287
H -0.695067 -0.7065363 1.884754
