10

N 0.89982361 1.55945839 0.16920291
C 0.10616579 0.74970096 0.86289589
N 0.95991889 0.99430130 -1.01207677
N 0.28065859 -0.13543472 -1.16751346
N -1.15656272 -1.36399787 0.27202319
C -0.28479884 -0.31246351 0.02142573
H -0.14767467 0.96100375 1.89177169
H 1.49590715 1.39480588 -1.76436292
H -1.11447100 -2.06435415 -0.45627841
H -1.03896671 -1.78302000 1.18291206
