10

N 1.571031 0.83908945 0.31307027
C 0.2618335 1.0224597 0.4515876
N -1.7612858 -0.33108613 -0.24572049
N 1.6575038 -0.3226576 -0.28801367
N 0.5142896 -0.9417005 -0.555793
C -0.40086988 -0.09488878 -0.097480096
H -0.13250941 1.916938 0.9120998
H -2.3103125 -0.07319317 0.5612416
H 2.546116 -0.72755194 -0.53306615
H -1.9457965 -1.2874092 -0.517926
