11

O 2.0979958 -1.358904 0.437899
C -0.4116815 0.8996538 -0.56358284
C 1.0774306 -0.7298279 0.24748082
C -0.28765747 -0.9765586 0.81655633
C -1.1263754 -0.053341597 0.35796785
N 0.931898 0.37994537 -0.5502227
H -0.4604376 1.9307214 -0.19046488
H -0.85328823 0.88783765 -1.5685183
H 1.7065629 0.7706837 -1.0601429
H -2.1833403 0.04601035 0.58111906
H -0.49110663 -1.79622 1.4919086
