11

O -0.813302 2.1607857 -0.6990225
C -0.42097074 1.0842345 -0.30972743
C 0.34516516 0.0018368863 -1.0765325
C 0.54335076 -1.0868369 -0.0570514
C -0.014593249 -0.695015 1.0897663
N -0.5894412 0.5799357 0.9618067
H 1.2813681 0.41918024 -1.4615457
H -0.24260224 -0.3133111 -1.9456794
H 1.0502222 -2.0243833 -0.23064671
H -0.071747445 -1.2116184 2.038797
H -1.0674493 1.0851921 1.689836
