13

C 0.617106 -0.70302624 -2.0225656
N 0.8017886 -0.58630383 0.061187483
C -0.7543835 0.9126785 1.282554
O -0.72874904 0.47244704 -1.081188
C -0.20149516 0.23131455 0.043485586
O -0.2635311 0.38006064 2.490175
H -1.8507525 0.90215576 1.2248472
H -0.4388572 1.9608464 1.2534
H -0.22708306 -0.7530155 -2.7034957
H 1.3217676 0.085361995 -2.2512057
H 1.2940674 -0.7373651 0.9384282
H -0.6471428 -0.4967171 2.6092513
H 1.0772647 -1.668437 -1.8448738
