12

C 0.73294306 0.009883081 -1.0101027
C 1.0880079 -0.41241714 0.38349098
N 0.12372034 -0.23596734 1.1978667
N -0.6876661 -0.19376399 -1.00884
C -1.2359055 0.24493596 0.5809398
O -2.2631478 -0.2983731 0.9621025
H 1.0522149 1.0608298 -1.1491574
H 2.0295866 -0.8546094 0.7035694
H -1.1680651 0.4387945 -1.6552851
H 0.13784468 -0.5083093 2.1714704
H 1.2979767 -0.59683555 -1.7278281
H -1.10751 1.3458326 0.55177325
