12

C -0.43009899 2.03269272 -0.51901233
C -0.15421513 -0.09510272 0.69773485
N -0.19941920 0.69662106 -0.50381748
N 0.67176114 -1.81465971 -0.77537428
C 0.36290626 -1.47589998 0.40276810
O -0.45878489 2.71867403 -1.51844816
H 0.49289857 0.36687594 1.45900799
H 0.03390751 0.22823621 -1.37290952
H 0.43059697 -2.13140255 1.28366046
H -0.59937947 2.44697193 0.49417127
H -1.14909103 -0.19341484 1.15988482
H 0.99891827 -2.77959173 -0.80766569
