10

O 0.84184335 0.59891173 -1.23067541
C -1.22080116 0.69158489 0.01711837
C 0.27918755 0.40804128 0.02502504
O 1.12273653 -1.79590269 -0.15329494
C 0.48535159 -1.01617170 0.51119911
O -1.88654002 0.67130901 1.02145436
H 1.27011287 -0.24156312 -1.46594064
H 0.72988897 1.06603270 0.78733673
H -1.63918015 0.89633601 -0.98892890
H 0.01740057 -1.27857833 1.47670616
