10

O -1.306937 -1.6344926 -1.1040869
C -0.6724399 -0.7948548 -0.5175862
N -1.1704458 0.009431678 0.57596195
C 0.9070326 0.6908665 0.2971575
C -0.34855014 0.8923848 1.1197209
N 0.59975696 -0.3543583 -0.6617061
H 1.1727811 1.6376251 -0.18914904
H 1.2086023 -0.7362944 -1.3631738
H 1.7353355 0.41537753 0.96007705
H -2.1251357 -0.12568559 0.88278455
