10

O 0.45764047 0.3226215 2.0342228
C 0.1266221 -0.19008955 0.8587748
C 0.31674445 -1.3185518 0.15666507
N 0.020392276 -0.087204084 -1.9139473
N -0.61446476 -0.87477326 -0.8685602
C -0.16389678 0.9692081 -1.213617
N -0.8133823 0.38701767 -0.08621153
H 0.0020991478 2.018672 -1.4252559
H -0.15613264 1.0405964 2.2433577
H 0.8243781 -2.267497 0.2145716
