11

O 0.70881123 0.70587857 -0.03232508
C 0.12643637 -0.15785398 -0.87338641
C 0.35673989 0.80045341 1.35268131
O -1.42768120 -1.22158702 0.64997629
C -0.95926137 -1.11632263 -0.45231719
N 0.44233196 -0.23827934 -2.10146204
H 1.17768985 0.42866268 -2.33319647
H 0.54454270 -0.13863171 1.87857540
H -0.69055138 1.08447155 1.47960631
H 1.00642484 1.58524311 1.74197447
H -1.28548270 -1.73203463 -1.31012679
