12

O -0.0744441 1.7061985 -1.7462963
C -0.11223461 0.3796245 -1.3246554
C -0.0884834 -1.0963836 0.8409623
O 0.34554332 1.233932 0.83665794
C 0.069481365 0.25297743 0.17249773
O 0.24560244 -1.0481395 2.1913166
H 0.4081677 -0.11622555 2.4017382
H 0.68612456 -0.21432902 -1.7991706
H 0.5398651 -1.8333012 0.31894618
H -1.0660381 -0.087150626 -1.6126959
H 0.1813945 2.234041 -0.97478426
H -1.1349789 -1.4112437 0.6954837
