11

C -0.81520890 -0.18859101 0.95991165
N 0.49649637 -0.77774536 0.58211139
C -1.08348313 1.02898831 0.08989083
C 0.73474697 -0.27752715 -0.75156533
N -0.15591332 0.91436638 -0.82586296
H 0.41997788 -0.99203354 -1.52201399
H -0.84912901 0.04001503 2.02999306
H -1.63030997 -0.90096353 0.76453955
H -0.10163990 1.55077086 -1.61056053
H 1.78795557 -0.01860819 -0.91877439
H 1.19650732 -0.37867177 1.20233055
