10

O -2.027608 0.9538233 0.63336986
C -0.4620201 -0.44460878 -0.7653463
C -0.92991084 0.5237541 0.3528391
N 0.93950206 -0.34265754 -0.29792634
C 0.40638962 0.67734295 0.8545535
H 1.2472376 0.7642543 -0.2222372
H 0.82441545 0.6513756 1.8526348
H 1.4486648 -1.1656499 -0.0031325081
H -0.84139645 -1.4556857 -0.59251773
H -0.6052742 -0.16194832 -1.8122373
