10

O -0.35123292 -0.55367225 -2.320177
C -1.1057423 0.30376813 -0.14438279
C -0.29799053 -0.2376165 -1.1436323
N -0.048891637 0.28028604 0.9002889
C 0.8881042 -0.3346355 -0.12632762
H 1.2042972 -1.3342164 0.17821722
H 1.74986 0.3106373 -0.30864516
H 0.27351642 1.1868101 1.2485924
H -2.0970733 0.7040765 0.008773979
H -0.21484734 -0.32543758 1.7072922
