10

O 0.794685 1.9339069 -0.7601304
C 0.35510495 0.8895722 -0.37774754
C -0.9291906 0.44080725 0.3288685
N -0.50964755 -0.9560562 0.09316332
C 0.83523124 -0.56403244 -0.3904979
H -0.95725435 0.76289845 1.3785077
H -1.8725394 0.7266103 -0.14997293
H -0.4930074 -1.5259933 0.9301591
H 1.6637653 -0.72788453 0.3125371
H 1.1128528 -0.97982824 -1.364887
