10

O -0.58727324 1.9529992 0.073330075
C 0.6762213 0.12997746 -0.9872276
C 0.7966639 -1.3193669 -0.5813217
C -0.23617898 0.80355453 0.028201496
O 0.05958168 -1.4740266 0.49278903
C -0.6355635 -0.2958288 0.9937045
H 0.2766528 0.2049377 -2.0058734
H -1.7102852 -0.49525285 0.9894932
H 1.6671596 0.5984496 -1.0219703
H -0.3069782 -0.10544318 2.0188744
