10

O 0.33796313 -0.5099747 -2.2350054
C 0.14922732 -0.3229441 -1.0686882
C -0.9080599 0.48297057 -0.2667431
C 0.008298344 0.26918137 0.9401914
O 0.075392984 -1.1286997 1.1375035
C 0.9751377 -0.5528148 0.19030766
H -1.9084234 0.056872226 -0.1737348
H -0.9675492 1.5128428 -0.63376594
H 0.2022444 0.9203632 1.7844183
H 2.0357685 -0.72779673 0.32551637
