10

O -1.3241662 0.80487823 0.22768798
C -0.04421506 1.0805663 0.749496
C 0.17624459 -0.7435733 -0.5791063
C 0.83139664 0.63947415 -0.45092246
O 0.4848458 -1.7377143 -1.1706786
C -0.8729477 -0.50661916 0.48293945
H -1.6386898 -1.1775079 0.8661598
H 0.62120986 1.3008047 -1.2952439
H -0.13913156 -0.2413708 1.43632
H 1.9054532 0.5810621 -0.26665175
