10

O 1.29772897 1.34721556 1.64986975
C -0.25321792 -0.62745802 -0.80967212
C 0.04273122 -0.43307285 0.65374331
C 0.35121675 1.01272671 0.98983229
N -0.13521229 0.33771173 -1.62484302
H -0.83950591 -0.73601036 1.23569362
H -0.56888748 -1.63741219 -1.10252574
H -0.37903775 1.74835692 0.59803651
H 0.87649289 -1.06405660 0.97678043
H -0.39230873 0.05199896 -2.56691543
