9

O -1.55547187 0.00366781 0.32560305
C -1.73379468 0.10248473 1.63329166
C -0.26733026 0.01668301 -0.11703894
N 0.75425703 -0.62549243 0.33923077
C 1.69879768 -0.23838768 -0.57848827
N 1.28240865 0.56021711 -1.51677033
O -0.06353940 0.73577318 -1.21093378
H -2.84354626 0.01199016 1.67155496
H 2.72821940 -0.56693606 -0.54644895
