9

O -0.26669922 -0.08048226 1.5645823
C -0.7442543 -1.2760817 1.8713337
C 0.17370711 0.38474253 -1.7604516
N 1.2548149 0.96255577 -1.3258708
C 0.041620016 0.13569716 0.2555308
N -0.64336044 -0.15469696 -0.7983596
O 1.1694851 0.80075586 0.053430367
H -0.048571896 0.34790388 -2.8177664
H -0.9367412 -1.1203942 2.9575713
