12

O 1.03444298 -0.74945903 1.11168424
C 0.90787953 0.36531121 0.27318880
C -0.50728478 0.87014597 0.14278283
O -1.47005469 0.12937190 0.84172328
C 0.13147611 0.11622087 -1.00104969
O -0.30276427 -1.20326893 -1.16305411
H 0.41641003 0.61352853 -1.92415659
H -0.72213486 1.93116459 0.05167436
H 1.74357560 1.05936565 0.30258994
H -0.97442092 -0.35906675 1.51983279
H -1.15050889 -1.25266154 -0.68919775
H 0.89338407 -1.52065278 0.53398206
