12

O -1.6813645 -0.05262594 -0.23778103
C 0.5213931 0.607302 0.62583
C 0.7111121 -0.047743738 -0.7245232
O 0.55664617 -1.4376934 -0.71791357
C -0.54396015 0.74258626 -0.4330725
O 0.17900231 -0.27071005 1.66201
H 0.47429186 -1.1484607 1.3607873
H -1.6764872 -0.27847308 0.70722
H -0.39766335 -1.5886711 -0.82813835
H 1.4697211 0.31821078 -1.4109766
H 1.1142188 1.4662428 0.92871994
H -0.7269102 1.690036 -0.93216175
