10

O -1.58045816 0.93049600 1.15885587
C -0.42209822 0.31063007 0.79406237
C 0.73664186 -0.64561390 -1.12670189
C -0.26066296 0.08381259 -0.65565318
N 1.56748161 -1.39595464 -1.59472502
N 0.45116239 -0.03385216 1.64195124
H 0.12686027 0.20564299 2.57872262
H 2.48479381 -1.01951268 -1.81658612
H -0.94471367 0.52422163 -1.37317141
H -2.15900704 1.04013012 0.39324546
