9

N 1.2156485 0.011248376 -0.032217886
C -0.014895624 0.741775 -0.28970748
N -1.1605526 -0.11783307 -0.61134696
C 0.1600939 -0.045472227 0.93241394
O -0.87709826 -0.9410528 0.55552953
H 0.3217343 0.12502053 1.9873706
H -0.97027576 -0.7066695 -1.4283813
H 1.325348 -0.85600424 -0.55882734
H -2.4867747e-06 1.788988 -0.55483305
