11

N 1.1243821 0.6653211 0.42207438
C 0.42175984 1.4576188 -0.36171913
C 0.61287326 -0.6748942 0.66600883
C -0.8171441 0.62330836 -0.70125467
C -0.6502467 -0.7347313 -0.041837115
O 0.503681 -1.4488529 -0.50737333
H 2.0198991 0.94957745 0.7973035
H -1.4841925 -1.3564061 0.26883063
H 0.9006224 -1.1834499 1.5800604
H -0.924672 0.5500304 -1.78793
H -1.7069628 1.1524777 -0.33416346
