11

N 1.8292023 0.3445921 0.29640406
C -0.16479656 -0.7954875 -0.7464223
C 0.8180507 0.24664113 -0.6899388
C -1.2298514 0.36632237 0.8888563
C -1.263366 -0.78816754 0.10439538
N -0.5485517 1.348401 0.57345235
O 1.5931301 -0.20237458 1.3698292
H -0.11138486 -1.5326145 -1.5440719
H 1.2209586 0.61343336 -1.6314585
H -0.0923025 1.9302517 1.2786747
H -2.0510886 -1.530997 0.10027972
