17

C -1.5314523 2.23794 0.1379261
N -0.6634573 1.1770539 -0.34041962
C -0.11214639 0.31829846 0.5949457
O -0.22634342 0.5269808 1.7967254
N 0.6008085 -0.73967254 0.08150235
C 1.0449309 -1.7856102 0.979682
C 0.83218193 -0.9393525 -1.3365469
H -2.4660046 1.8619795 0.5750798
H -1.008129 2.807358 0.9099618
H -1.7654482 2.9057055 -0.69425565
H -0.9302092 0.77506477 -1.2264584
H 0.52822584 -2.7338088 0.77591956
H 0.8266703 -1.4742173 2.0010588
H 2.1245134 -1.9533352 0.8758793
H 0.99935305 0.021903483 -1.8323672
H 1.7391666 -1.5392922 -1.4626982
H 0.0073395497 -1.4669961 -1.8359346
