17

C -0.06598595 0.25580356 -0.12853296
N 0.007062133 -0.44827873 0.96728796
C 0.34767082 0.70347035 -2.500907
O -0.5031958 1.4393418 0.034225546
N 0.26512986 -0.20364872 -1.3712294
C -0.79066384 1.1783749 1.9852141
C 0.29446873 -1.8607879 0.995097
H 0.8533181 -1.0202855 -1.3890224
H -0.5163719 1.3704926 -2.4743152
H 1.3654822 -2.0835335 0.86322075
H 0.32156047 0.124997675 -3.4272656
H 0.008247597 -2.2614126 1.9755977
H -0.2729687 -2.4184253 0.23509297
H -1.2462481 0.40201578 2.593218
H -1.4898641 1.9842768 1.7700601
H 1.2570376 1.318533 -2.4888902
H 0.16532074 1.519066 2.3611486
