11

C 1.2395512 -1.304846 -1.3300536
C -1.0854725 0.35235742 1.1330085
N -0.5074302 -0.30794954 0.15896071
C -0.036584422 -0.7408968 -0.83705
C -0.917108 1.785921 1.1418617
O -0.28096536 2.4196937 0.31716967
H 1.0499942 -2.2297032 -1.882381
H -1.6556273 -0.20190066 1.8685693
H 1.957973 -1.4837021 -0.52433676
H -1.4261929 2.2921941 1.9882058
H 1.6618618 -0.58116794 -2.0339544
