11

C -0.02219925 -0.33451179 1.57280752
C -0.57372876 -0.19096892 -2.15465059
N -0.46486294 -0.20519436 0.34552062
C 1.01910821 0.57301201 1.99186462
C -0.83853735 0.11448826 -0.73120909
O 1.51212505 1.44141492 1.29238408
H -0.45658776 -1.10113430 2.20282717
H 1.35560908 0.41739979 3.03796702
H 0.09854714 -1.04482286 -2.28223423
H -0.11278149 0.69829310 -2.59541492
H -1.51669190 -0.36797571 -2.67986232
