11

C 0.5093818 -0.96489996 1.4999751
C 0.16546766 -0.12506619 0.3193478
N 0.6359717 1.0341371 -0.008513119
C -0.032163206 1.3604232 -1.1816684
C -0.87953436 0.36048323 -1.5001632
O -0.76363754 -0.60470647 -0.5431548
H -0.38384026 -1.2009166 2.0865638
H 1.2139305 -0.41616058 2.1290011
H 0.9686913 -1.9105465 1.1953369
H 0.14841063 2.2899659 -1.7013535
H -1.5826782 0.177287 -2.2953718
