11

C -0.52005714 1.1353484 0.48012292
C -0.1294191 -0.23366112 -0.030723568
C 1.2608299 -0.71259886 0.028944425
O 0.2807077 -1.1803339 0.9407244
C -0.9892955 -0.77709043 -1.0806065
N -1.6796308 -1.1697793 -1.9197217
H -1.5247627 1.1109602 0.90992504
H 0.1838314 1.4503206 1.2537239
H -0.50924057 1.8668777 -0.3332188
H 1.6133858 -1.4434795 -0.69634455
H 2.013651 -0.046563745 0.44717446
