11

N 0.13953464 -1.0353112 1.8515021
C 1.0976272 0.47931728 -0.34285218
C -0.15400636 0.050713673 -0.27878645
N 2.2745745 0.7220032 -0.5622777
N -1.1274663 0.3576152 -1.2762716
C -0.5729744 -0.8366816 0.8169962
H -1.7115573 1.1436794 -1.0120208
H -1.554966 -1.2923213 0.62989277
H -0.32327652 -1.703537 2.4655604
H -0.706692 0.5532563 -2.1756442
H 2.6392024 1.5612663 -0.11609867
