12

O 1.21974833 1.16390280 -0.35817229
C 1.22834540 -0.12579593 0.23032970
C -1.12217817 -0.17460151 0.90854335
O -1.92233509 0.54935074 0.15117156
C -0.11998429 -0.81205848 -0.03512051
O -0.41480612 -0.79569358 -1.40739527
H -0.35498430 0.12316600 -1.68843470
H 0.65553632 1.73069321 0.18174238
H 1.44702203 -0.08950629 1.30443566
H -2.57898367 0.97052554 0.72564618
H -0.05511638 -1.86141719 0.27455186
H 2.01773588 -0.67856557 -0.28729803
