10

C 1.1565292 0.75413704 1.0853298
O 1.4619317 -0.18646924 0.024072316
C -1.6908563 -0.72751653 -1.1421723
O -0.6632616 -0.22879618 -0.37052318
C 0.5654491 -0.7153456 -0.7520526
O -2.8184645 -0.38569152 -0.96517736
H 0.690127 1.651717 0.6706269
H 0.49220812 0.29131547 1.8187424
H 2.1240666 0.98523927 1.527266
H -1.3177292 -1.4385896 -1.8961121
