10

C -0.991876 0.38593706 -1.3110787
O -0.5393768 -0.39478528 -0.1942611
C 0.5241778 0.093322 0.43360597
O 1.1164333 1.1037967 0.14522041
C 0.962654 -0.76784027 1.6122216
O 0.41030526 -1.778202 1.9470133
H -1.853045 -0.1511051 -1.7053057
H -1.2775607 1.3891885 -0.98283863
H -0.20379952 0.46435425 -2.0646586
H 1.8520879 -0.34466615 2.1200817
