11

N -1.7683727 -0.32177976 0.23265564
C -1.1443754 -1.3294655 -0.25810412
C 0.5149001 -0.030010123 -0.08547534
N 1.753654 0.4972821 -0.08360156
C -0.7252041 0.6755863 0.41382235
N 0.23753226 -1.2345437 -0.48315752
H 1.8870672 1.4891174 0.018373584
H -0.9500945 1.582856 -0.15727635
H 2.477908 -0.024139944 -0.5555582
H -1.6456199 -2.2597122 -0.5106243
H -0.63739514 0.9548095 1.4689459
