10

N 0.9518311 1.819442 -0.66785264
C 0.26298288 0.882818 -0.17656174
C -1.3339839 -0.32421604 0.8981287
C -0.6442814 -1.2848653 -0.05216402
C 0.5470614 -0.55607104 -0.34378308
O -0.045442183 -1.0026255 1.2548258
O -0.8866818 0.980513 0.5428117
H 1.4846736 -0.92578804 -0.74641085
H -0.88642615 -2.3153136 -0.28373197
H 0.5502664 2.7261064 -0.42526194
