10

N 1.5567229 -0.17272659 0.8859427
C 0.36300087 -0.30577382 0.35091364
C -1.653001 -0.09376845 -0.046892308
O -1.1293627 0.7165683 -0.94826347
C 0.30130652 0.566254 -0.7895182
N -0.8597657 -0.79183733 0.728952
H 1.9015468 -0.8375021 1.5729127
H 0.71141446 0.18669634 -1.7273115
H 1.544876 0.83477193 -0.039445013
H -2.736738 -0.10268215 0.012709481
