10

O -0.5488983 1.1092297 0.58524466
C 0.44523504 -0.7837677 -0.39582202
C -1.4169079 0.30280706 -0.065249175
N -1.0032511 -0.74836355 -0.63454086
C 0.74706256 0.49070144 0.4272311
H 1.1475867 0.2858786 1.4231132
H 1.3984967 1.2023311 -0.086927556
H -2.4483516 0.64199734 -0.040082403
H 0.975435 -0.7982484 -1.3532965
H 0.70359296 -1.7025656 0.14032969
