9

N 1.4936186 -0.8405257 1.6533078
C -0.49165094 -0.6494844 0.08772737
C 0.58424586 -0.7577166 0.85384864
N 0.046255793 1.5404894 -0.74983484
C -0.76700586 0.5612639 -0.69175464
H -1.7328262 0.5399687 -1.2139039
H -1.1779749 -1.4891177 0.051319025
H 2.393834 -1.1874774 1.3362532
H -0.34849635 2.2825997 -1.3269628
