9

N 0.18097245 0.06596192 2.37354265
C 0.06319050 -0.33842112 1.23531910
C -0.23639786 0.09223163 -1.14780181
N 0.06288784 1.32897800 -1.08044534
C -0.19842275 -0.79468023 0.01893262
H -0.39035343 -1.85633378 -0.09684546
H 1.11259716 0.15114235 2.76864587
H -0.04927255 1.76115052 -1.99711354
H -0.54520133 -0.41002919 -2.07423409
