12

O 0.19673271 1.4597266 1.0155315
C -0.87008095 -0.42359978 -0.18978275
C 0.037843704 0.09606396 1.0193318
O 1.4599025 0.034556836 -0.8818173
C 0.78011876 -0.6706399 0.049858924
O -0.8675209 0.38128826 -1.390936
H 0.82251066 1.6369791 0.29632148
H 1.0476686 -1.7127748 0.20490314
H 0.7055326 0.38909757 -1.493592
H -0.2607064 -0.32985634 1.9707174
H -1.6439362 0.5082665 -0.42764258
H -1.4080653 -1.3691082 -0.17289358
