12

N -0.45259210 -0.33238182 -1.90461564
C -0.00006702 -0.10248974 -0.63037007
C -1.07569435 -0.16736498 0.41339762
N -0.77372874 -0.04576806 1.63811783
C 1.75685175 0.59761499 0.79440266
O 2.65707756 0.03438543 1.36279879
N 1.22650506 0.17574727 -0.42564589
H 0.26467736 -0.41590763 -2.61002133
H -1.25925975 -0.92451633 -2.02618419
H -2.09958350 -0.30926881 0.03705922
H -1.60565364 -0.08725569 2.22665148
H 1.36146696 1.57720546 1.12440972
