12

N 0.663014 -0.93426937 -0.63555443
C 0.17928834 0.24240056 -0.5629994
C 0.651936 -1.8676627 0.40194863
N 0.4002648 1.143322 -1.5733662
C -0.60995793 0.80223686 0.58343315
O 0.16601616 -2.9657698 0.30840233
N -0.9440201 0.04893271 1.5461605
H -1.4539793 0.56993145 2.2593884
H -0.27701962 1.8758365 -1.7176687
H -0.8483563 1.8743767 0.5217998
H 0.8209767 0.7625495 -2.4082692
H 1.2518375 -1.5518838 1.2767247
