12

N -0.27074695 -0.009005415 -2.0518665
C -0.1595454 -0.036459237 -0.6533302
C -1.031715 -0.3131343 0.3349749
N -0.35286203 -0.102235444 1.5492796
C 0.93500507 0.33185872 1.3308059
O 1.7722505 0.65623456 2.1507306
N 1.0511427 0.3142072 -0.05588352
H 0.2871209 -0.72978455 -2.4966524
H -1.2341704 -0.1175285 -2.340549
H -2.0487216 -0.6690202 0.29549608
H -0.7623338 -0.091971144 2.4658878
H 1.8145756 0.7668384 -0.52889305
