12

C 0.45429602 0.10260024 0.90144765
C 0.45066237 -0.6089606 -0.46996406
N -0.70107996 0.20933315 -0.850188
C -0.99054235 0.51268226 0.56005436
O 1.5548412 -0.5289822 -1.3126264
H 1.6791009 0.40874478 -1.5149175
H 0.23145142 -1.6801355 -0.3766585
H -1.2829845 1.5494201 0.7474639
H -1.7288595 -0.15938924 1.0202762
H 1.1410786 0.95445997 0.9030416
H 0.6198949 -0.5152764 1.786086
H -1.427859 -0.24449652 -1.3940151
