9

O -0.24176112 -1.2146525 1.754607
C -0.18995483 0.1275718 1.3350552
C 0.115001716 0.26494023 -0.1006777
C 0.33832848 0.33210945 -1.2817105
C 0.60054606 0.4135432 -2.639209
N 0.81759834 0.4811917 -3.7770898
H -0.9187996 -1.6741513 1.2430321
H 0.6027934 0.6010252 1.918684
H -1.1237522 0.6684222 1.5473089
