9

O -0.99554265 -1.683634 0.87246966
C 0.18148302 1.2664884 -0.49489763
C 0.2597584 0.18487082 0.019750142
C 0.010857475 3.5273438 -1.575868
C 0.28576288 -1.157511 0.6202152
N 0.094693884 2.4635634 -1.062319
H 0.78734004 -1.1136172 1.5913082
H -1.5061867 -1.6666447 0.05445048
H 0.8818337 -1.8208594 -0.025109105
