10

N -1.39567007 0.86086718 1.56367596
C 1.04662039 0.35285393 -0.92049736
C 0.18111578 -0.77639143 -1.10447435
C -0.48806511 0.27732258 1.01576895
C 0.50797538 -0.37718200 0.39247285
H -0.86778458 -0.73241242 -1.41426097
H -1.30453254 1.84315719 1.79775249
H 0.52163802 1.30847503 -1.07762172
H 0.62270231 -1.76835994 -1.24659023
H 1.17600050 -0.98833026 0.99377485
