10

N -1.5489106 0.67198336 1.511087
C 0.9862464 0.48918357 -0.92479897
C 0.3301923 -0.77860355 -1.0678014
C 0.5583099 -0.2677689 0.4134368
C -0.54557675 0.23098524 0.9979447
H 1.3107954 -0.7297061 1.0472376
H -1.6313528 1.6641289 1.7030298
H 0.30810803 1.3330723 -1.1284811
H 0.9375005 -1.6849403 -1.1622871
H -0.7053123 -0.9283344 -1.3893675
