10

N -1.4136268 0.17331205 1.7815925
C 0.90706325 0.06544504 -0.97584254
C 0.40545252 -0.54778385 0.34491614
C -0.49194008 0.33894616 -0.56480616
C -0.26949266 -0.054378368 1.4856892
H -0.48428446 1.3716422 -0.20944591
H 1.1525404 -0.7283251 -1.6786714
H -1.7200257 0.13217641 0.4929253
H 1.6299511 0.87870896 -0.9692186
H 0.2843623 -1.6297435 0.29286146
