11

C -0.70186947 -0.06886601 -0.84558052
C 0.31976767 -0.35625805 0.23371872
C -0.31253450 1.74164714 0.28760116
N -1.02621194 1.35162792 -0.67821400
C 0.95631285 -1.46428712 0.57141136
O 0.51631265 0.84642456 0.90215026
H 0.77104470 -2.38241097 0.02354549
H -1.60729679 -0.67525171 -0.73365959
H -0.30337687 -0.24576498 -1.85068936
H -0.27960586 2.74370919 0.70101920
H 1.66745779 -1.49057000 1.38869736
