9

O 0.81443757 -1.6752641 -0.763381
C 0.26966205 -0.5618744 -0.24782102
N -0.30897993 -0.51148385 0.94063556
N -0.68940324 0.75794053 1.0221006
N -0.4067726 1.5250989 -0.006072452
C 0.21387368 0.70621383 -0.84913254
H 0.69624484 -2.387511 -0.12166951
H -1.1679679 1.111226 1.8346174
H 0.5789054 1.0356545 -1.8092768
