9

O 1.5868204 -0.6443133 -0.55200756
C 0.1165058 1.2384487 -0.009336756
N -0.67779267 -0.7406823 0.24723783
N -1.6502709 0.13461575 0.6062839
N -1.1603231 1.3154691 0.45079598
C 0.4348201 -0.08825037 -0.14472206
H 0.7204759 2.1083648 -0.21272561
H 1.4970597 -1.5943977 -0.6869951
H -0.86729497 -1.7292552 0.3014694
