9

O 1.8466192 -0.18071863 0.3541809
C 0.5323904 -0.11853893 0.11767776
N -1.6439106 0.121963106 0.34459
N -1.4145994 -0.083426595 -0.9301332
N -0.38387975 0.118556134 1.0552305
C -0.11138945 -0.30282462 -1.1036286
H 1.993123 -0.071830794 1.3034288
H 0.31391856 -0.5720855 -2.0600123
H -1.1322718 1.0889058 0.9186662
