9

O 0.71784235 -1.58348798 -0.46380901
C 0.21243982 -0.37092521 -0.18730949
N -0.43005297 -0.00634437 0.94029459
N -0.79421541 1.29959372 0.88846719
N -0.38464865 1.75267192 -0.24538253
C 0.23929403 0.76987104 -0.94733999
H 0.43950832 -2.24253080 0.18204833
H -0.66099807 -0.54474992 1.76060697
H 0.66083045 0.92590201 -1.92757583
