11

C -0.40847406 0.91621655 -1.1542467
C -0.07405772 -0.3340955 -0.3791048
O -0.06318791 -1.4392225 -0.8773707
C 0.2790241 -0.18397719 1.0919931
O 0.6534305 -1.4003572 1.6543533
H 0.5186826 1.3375864 -1.5580008
H -0.8690784 1.6801006 -0.51762915
H -1.0664202 0.6761907 -1.9918376
H -0.6001877 0.2425557 1.602993
H 1.0863018 0.5602785 1.183144
H 0.54396707 -2.055276 0.9457066
