11

O -0.27913263 1.6380317 2.1666875
C -0.21563534 0.86712146 1.2328454
C 0.75288063 1.0188936 0.13580303
C 0.78203243 0.13716118 -0.8709788
N -0.10226862 -0.9196745 -0.87621194
C -0.9930542 -1.0422442 0.15159374
N -1.090921 -0.2469258 1.1519511
H 1.436675 1.8572165 0.16792507
H 1.4652872 0.1852377 -1.7118231
H -0.09812643 -1.5935142 -1.6231837
H -1.6577368 -1.9013035 0.075391695
