11

O -0.46841339 1.47901026 -0.45979839
C -0.70562398 -0.53034656 1.04139748
C 0.72330924 0.69699236 -0.46204876
C -0.97108727 0.22098186 -0.86154544
N -1.64928400 -0.45367355 0.14233822
C 0.12599463 -0.21079342 -1.56573548
N 0.58127457 -0.12845284 0.78355130
H 1.24772050 -0.07757100 1.54168726
H 1.66698594 1.24497083 -0.48369040
H 0.35604464 -1.26524100 -1.68909199
H -0.90692064 -0.97587699 2.01293618
