10

O 1.71660921 -0.46245414 -1.41412642
C -1.01589565 0.30098089 0.69550820
C 0.86386152 -0.26109940 -0.58122132
C -0.51403459 0.38624192 -0.71333458
N 0.93537219 -0.58341812 0.75363108
N -0.17818050 -0.24707680 1.49405589
H -1.13029221 -0.16538001 -1.42980695
H 1.71521745 -1.02580881 1.21108856
H -0.42094171 1.41276439 -1.08158346
H -1.97171579 0.64524992 1.06578910
