10

O 2.036699 -0.41168463 -0.9180073
C -0.30765405 0.41273242 -0.8107167
C 0.9902684 -0.24033363 -0.33742562
C -1.1677076 0.2761229 0.40814248
N -0.56958205 -0.30175853 1.3818525
N 0.7045573 -0.6116559 0.95537096
H -2.1908236 0.60742414 0.52081186
H -0.7045492 -0.11155059 -1.6853563
H -0.12854037 1.4520309 -1.1036311
H 1.3373319 -1.0713271 1.5889593
