10

O -0.79831576 -1.7322196 -0.7473959
C -0.29945666 -0.5856993 -0.23617868
C 0.8651889 0.12306299 -0.42013943
C 0.71148485 1.2346525 0.44573042
N -0.4342628 1.2147775 1.1010339
N -1.0393022 0.087275185 0.66658664
H -0.15736732 -2.099617 -1.3674811
H 1.6912197 -0.11891338 -1.072482
H 1.4057441 2.0489779 0.60779065
H -1.9449329 -0.17229694 1.0225356
