10

O 0.46492285 1.5553132 -1.3213111
C -0.04901865 -1.155533 0.6973434
C -0.058741122 0.73969877 -0.47498083
C 0.24981426 -0.64799243 -0.62748295
N -0.5205068 -0.24479638 1.5010084
N -0.552731 0.9334013 0.752041
H -0.64523256 1.8144456 1.2318077
H 1.0983196 0.36343798 -1.2764052
H -0.011470605 -1.1830628 -1.5362599
H 0.024644032 -2.1749122 1.0542394
