11

N 0.93122566 -0.38076994 1.2231231
C -0.29141158 0.17170802 1.0041364
O 0.5491851 0.39230126 -1.3087391
C -0.91511536 -0.64199495 -1.4206718
C -0.6408298 0.4443328 -0.44223967
O -1.1133772 0.3862229 1.8740286
H -0.47285673 -1.5464444 -0.9603348
H 1.1631432 -0.6483201 2.1668766
H 0.38504907 0.94586265 -2.0866883
H -1.1950555 1.3776224 -0.5323039
H 1.6000429 -0.5005206 0.4828126
