11

N 1.6174282 -0.065971605 -0.29400545
C 0.47729284 0.1791794 -0.99087465
O 0.37075382 0.14367668 -2.200161
C -0.71744084 0.4679323 -0.115370475
C -1.159351 -0.52036136 0.87466586
O -0.46523532 0.6553611 1.2717489
H 1.656979 0.17935503 0.68309605
H 2.4739592 -0.17669553 -0.8148039
H -1.4479401 1.1404206 -0.5605951
H -2.210639 -0.5578378 1.1578567
H -0.5958066 -1.4450587 0.9884429
