11

C -1.3071991 -0.7890682 0.67971426
N -0.12790778 -0.052606605 0.2674475
C 0.39734882 0.10014885 -0.97046846
C 1.4879179 0.9046526 -0.7683615
N 1.5723362 1.1968194 0.5554194
N 0.59367746 0.6162402 1.1747093
H -1.3653371 -0.71060467 1.7651826
H -2.2039373 -0.35477278 0.2329311
H -1.2206357 -1.8393573 0.3930635
H -0.03149686 -0.35720927 -1.8486336
H 2.2052333 1.2857575 -1.481004
