11

C -0.12718232 -0.32274713 0.31596470
N -1.05844776 0.59090060 -0.04575968
C 0.56190774 0.97048522 -1.32904631
C 0.96248380 -0.10237512 -0.50258312
N -0.65426516 1.39473226 -1.05331617
N -0.39382940 -1.28495244 1.28879726
H -0.75340427 -0.89713237 2.15267253
H -2.00076789 0.67271578 0.29839070
H 0.42860922 -1.84091329 1.48614806
H 1.13127991 1.45221477 -2.11242046
H 1.90361597 -0.63292856 -0.49884741
