11

N 0.96368635 0.52159065 1.6412233
C 0.058186695 -0.46358135 -1.5252926
C -1.0591743 0.030778095 0.26184702
N 1.0052708 -0.18056278 -0.6216704
C 0.31986627 0.1181367 0.49107274
N -1.2620872 -0.39474386 -1.0083747
H 1.9392377 0.2647785 1.6646641
H -0.80218905 0.4510831 -1.8501588
H 0.47779158 0.33428726 2.5030231
H -1.8866649 0.29289088 0.90778697
H 0.24607593 -0.9746571 -2.4641209
