11

C 0.32623252 -1.21764051 1.46371806
C -0.11905860 0.15645003 1.09925454
N -1.47524493 0.24540984 0.39459415
C 0.04401861 0.68489616 -1.65755043
C -0.44559770 0.42469088 -0.29032064
O 0.08132857 -2.18812933 0.78519716
H 0.13107199 0.96361362 1.78548882
H 0.91599596 -1.29563413 2.40013798
H 0.65208612 -0.16720226 -1.97611092
H 0.67947680 1.57486208 -1.65604442
H -0.79030928 0.81868358 -2.34836423
