9

O -0.77936614 -1.6552411 -0.51258
C 0.08493868 -0.9182063 -0.113555364
C -0.51674885 0.5659753 0.96953994
C 0.65067285 0.4489103 -1.219021
C 0.020667808 0.9292149 -0.24499166
H 0.016804257 0.834057 1.877298
H -1.5866203 0.39847812 1.0435857
H 1.0309391 -1.1059871 0.3988189
H 1.0787127 0.5027986 -2.1990948
