9

O 0.42772293 -0.2825188 -2.8123703
C 0.504557 0.03172063 -1.6500429
C -0.29781812 -0.09181633 0.6366099
C -0.13708918 0.2996763 1.866574
C -0.4288676 -0.46668774 -0.61316544
H 0.48994213 -0.2623328 2.552677
H -0.63229525 1.192896 2.2389975
H 1.2889826 0.7233725 -1.2819012
H -1.2151344 -1.1443096 -0.9373787
