9

O 2.5033002 -0.30464622 -0.049655702
C 1.428091 0.22027853 -0.13350992
C 0.21012248 -0.23417003 0.66470784
C -1.0251266 -0.09524898 -0.10716473
C -2.0114548 0.03689985 -0.7781887
H 1.2534481 1.0973268 -0.7890619
H 0.16028243 0.39505127 1.5628529
H 0.37584618 -1.2632524 0.9986529
H -2.894509 0.1477612 -1.3686327
