9

N -0.2611949 1.2214664 1.5210025
C -0.36708456 1.159292 0.16706169
O -0.73971 2.0684505 -0.5423388
C 0.016979532 -0.14111637 -0.408295
C 0.30274776 -1.1655066 -0.9735194
C 0.6322832 -2.3428607 -1.6315448
N 0.9077247 -3.3235571 -2.1773221
H 0.034659185 0.43596104 2.0775325
H -0.5264051 2.0878706 1.9674233
