11

O -1.5003002 -1.0400295 0.37902722
C -0.16425912 -0.772233 0.06664268
C 0.028023412 0.23501325 -1.0935608
N 0.75937515 1.076534 -0.1453078
C 0.50564164 0.30263063 0.9499734
O 0.6797587 0.44014767 2.134953
H -1.5639274 -1.1226673 1.339133
H 0.43774143 -1.6836835 -0.04105816
H 0.6307261 -0.11476171 -1.9337342
H -0.9196617 0.6583203 -1.434784
H 1.1068821 2.020729 -0.2212844
