11

O -1.4444592 -0.006540141 1.9164162
C 0.44769144 0.13913357 0.20900276
C -0.9311393 0.26366478 0.87862957
N 1.080957 -1.1419027 0.06463686
C -0.30346757 0.6997279 -1.0086044
O -1.5158135 0.83238006 -0.21982343
H 0.020629263 1.6673645 -1.3931817
H -0.44272998 -0.017531248 -1.8207712
H 1.5176653 -1.4293796 0.9323726
H 1.1624123 0.85032105 0.6321441
H 0.40825397 -1.8572382 -0.19082142
