13

N -0.27447044 -0.37094064 -1.32335893
C -0.74138364 -0.28231457 0.09967672
C -2.04815791 0.24361085 0.15104306
N -3.14798621 0.63401399 0.17772589
C 0.35443986 0.41066061 0.86210837
N 1.60948463 -0.29654698 0.55413586
H -0.70849788 -1.15060335 -1.81832854
H 0.73616279 -0.56209233 -1.21162237
H -0.40108059 0.46857719 -1.89697217
H 2.41127271 0.21737534 0.90370794
H 0.52391438 1.46484142 0.55507494
H 1.59294008 -1.20153011 1.01916374
H 0.09336195 0.42494894 1.92764503
