13

N -0.60345197 -0.8625432 -1.4393295
C 0.44127527 -0.041035414 -0.83995163
C -0.08256022 0.54901725 0.47928393
N -0.5273169 -0.5328425 1.3491528
C 0.9875116 1.3198942 1.1369836
N 1.8206621 1.941052 1.642741
H -0.5137582 -0.8781623 -2.4502242
H -0.5138971 -1.8232971 -1.1266909
H 0.6882397 0.7820794 -1.518417
H 1.3645954 -0.59827054 -0.6276287
H -0.8885691 1.2580143 0.23354004
H -1.3470342 -0.9437161 0.9121044
H -0.82569665 -0.17018963 2.2484357
