11

N 1.57584134 0.15640503 -0.11057994
C 0.57077311 0.49430918 0.73497203
O -0.85222094 -0.06032765 -1.20288444
C -0.82888262 0.22579701 0.23435650
C -1.38480301 -1.15281017 0.15448313
O 0.73422347 0.93206769 1.85868361
H 1.39504932 -0.19134831 -1.03552639
H 2.52263724 0.23496208 0.22573685
H -1.74338832 0.13332958 -1.52539487
H -1.49670150 1.03609771 0.52524025
H -0.49252768 -1.80848224 0.14091306
