11

N -0.5275172 -1.3506429 0.60487795
C 0.5357549 -0.51665306 0.76843804
O 1.5413432 -0.7968682 1.3920611
C 0.4336128 0.80834514 0.041385952
C 0.41834414 0.82596856 -1.4452689
O -0.9314076 1.1280315 -0.31352156
H 0.9508245 1.5972824 0.5839647
H -0.7020291 1.7153853 -1.1897198
H -0.5186408 -2.2203033 1.1169771
H -1.4005387 -0.9991746 0.24631995
H 0.20025407 -0.19137098 -1.8055147
