12

N -0.9623029 -0.8399269 0.0751877
C 0.020218184 -0.7066064 -1.0060432
C 0.8466329 0.4643445 0.87620085
C -0.6589446 0.5021484 0.58698136
N 1.1132848 0.21382435 -0.56415045
C -0.21018456 0.89491415 -0.89518976
N -0.72761744 0.51094764 -1.9754597
H -0.74592197 -1.6084756 0.707274
H 0.24991022 -1.5120251 -1.6935271
H 1.2803193 1.4290195 1.1529042
H 1.209387 -0.32929194 1.5342296
H -1.4147809 0.9811273 1.2015927
