12

N -0.2237726 0.8702537 -0.8234276
C 1.0953343 0.18790978 -0.6052345
C -0.79772395 -1.1071268 0.180056
C -0.79048187 0.39288175 0.4638045
N 1.6457441 0.8366262 0.65714103
C 0.6470759 0.11613944 1.0450317
N 0.69680315 -1.0684148 0.17802303
H -1.12268 -1.7257768 1.0198151
H -1.6273326 0.9590166 0.8658311
H 1.7718065 0.08550958 -1.4486918
H -1.2588966 -1.418842 -0.75766367
H -0.035876397 1.8718234 -0.77468485
