11

O -1.47157244 1.09458344 -1.56892978
C 0.24535469 -0.56350521 -1.17377682
N 0.35954134 -0.32022017 1.09632781
C 0.85295096 -0.93910050 -0.02410153
C -0.56749615 0.71608299 0.67396667
C -0.71057268 0.49059559 -0.84600505
H 0.40336394 -0.96749878 -2.16390670
H -0.17266272 1.72108041 0.86055821
H 1.63553049 -1.68084479 0.09228078
H 0.96554704 -0.17459443 1.88909968
H -1.53998458 0.62342131 1.16448626
