11

O 0.18404134 -1.1662099 1.1359633
C 0.822885 -0.23819287 0.4249775
N -1.1400435 0.48797095 -0.014129935
C 0.06369423 1.0980527 0.6331988
C 1.0654411 -0.5293538 -0.94803166
C -0.42048883 -0.7177151 -0.35922006
H 0.48590562 1.9354196 0.07737544
H -0.9110171 -1.6102397 -0.7266876
H -1.4053259 0.9833036 -0.85960484
H -0.11587749 1.3395915 1.6814162
H 1.3707856 -1.5826268 -1.0452571
