9

O 1.005795 -0.94653857 -1.5025307
C 0.30991244 -0.34941056 -0.5203906
C -0.9409429 -0.6235138 -0.077215455
O -1.1959233 0.2659021 0.9417215
C -0.08912868 1.0053779 1.0373904
N 0.8448579 0.6946929 0.20037037
H 1.8616955 -0.5004355 -1.5466938
H -1.7174503 -1.3260874 -0.32411113
H -0.07881567 1.7800127 1.7914592
