9

O 1.77917506 1.52381197 -0.85368434
C 1.38988530 0.24226901 -0.60744703
C -1.79698872 -0.82438593 0.62132983
O -2.12223021 -1.82162069 0.04340362
C 0.38809813 -0.15072464 0.14883045
N -0.46268256 -0.50192886 0.97068153
H 1.97724857 -0.49760328 -1.13865265
H -2.51040104 -0.08963599 1.03602561
H 1.35789546 2.11981820 -0.22048724
