11

N 0.56408864 -1.4125856 -1.3640486
C 0.17532563 -0.44087696 -0.45153245
C -1.0222389 0.103289805 -0.107503876
C -0.7128902 1.1313616 0.85552984
C 0.62681216 1.1206365 1.0126238
O 1.1889533 0.15490682 0.21298186
H 1.4318932 -1.8609729 -1.1042963
H -0.16041695 -2.0958369 -1.5366583
H -1.9954786 -0.17099914 -0.48450458
H -1.4162189 1.7819647 1.3557454
H 1.3201708 1.6891124 1.6116633
