10

N 0.8276023 -1.5072088 -0.45493734
C -0.20439148 -0.6467897 -0.36282983
O -1.3312106 -0.8222421 -0.7843364
C 0.20453018 0.6469827 0.3646315
O 1.3309957 0.8210012 0.7880156
N -0.8270772 1.5082827 0.4519608
H 1.7143825 -1.2364066 -0.057957407
H 0.6991255 -2.3961544 -0.90788853
H -0.69932693 2.398637 0.90282476
H -1.7146297 1.2338982 0.060516853
