11

N 1.8204839 -1.7076725 0.72979504
C 0.045679748 1.2520638 -0.99015707
C -0.99774104 0.4167057 -0.29969773
C 0.7372743 -1.1402698 0.6730261
C -0.4909921 -0.6674261 0.6090205
O 1.2363596 1.0832037 -0.89026004
H -1.6467423 1.107602 0.25936037
H -1.6452389 0.0051975963 -1.0878255
H -1.2084432 -1.1337779 1.2794112
H -0.36062407 2.06793 -1.6260512
H 2.509984 -1.2835567 1.3433784
