11

N 1.84209514 -0.95019554 -1.57057998
C 0.96391669 -0.92294240 -0.71818838
C -0.53334392 1.48525611 0.24437690
C -0.96236715 0.08083020 0.57119663
C -0.03618660 -1.01885395 0.13440215
O 0.46692238 1.77261988 -0.36644308
H 2.77365189 -0.69814222 -1.25365680
H -1.22091502 2.27699136 0.61245716
H -1.11802621 0.03560100 1.65968681
H -1.96657568 -0.05059172 0.14220794
H -0.20917192 -2.01057273 0.54454081
