11

N 1.9143051 0.6242331 -1.2082763
C 0.8867459 0.26441306 -0.56555724
C 0.05399451 1.1203339 0.30279073
C -0.9342267 0.38236836 0.7973875
C -0.8065625 -1.0198709 0.27908373
O 0.35189846 -0.9952289 -0.55798036
H 2.30867 -0.15298043 -1.7346324
H 0.27076322 2.1680653 0.4629914
H -1.7257687 0.697007 1.4659663
H -1.6698399 -1.3318568 -0.3182227
H -0.6499798 -1.7564837 1.0764495
