11

C 0.41544524 0.2880564 0.07935748
C 1.7126617 -0.48903075 0.11816726
C -0.8173709 -0.45533517 -0.15383741
C -1.8116674 0.46783766 -0.13164015
N -2.1403983 1.6500427 -0.006312232
O 0.4040353 1.5032059 0.24218003
H -0.91755193 -1.5153497 -0.31590736
H 2.1803477 -0.33232355 1.0947863
H 1.5739756 -1.5592806 -0.051314313
H -2.9870868 0.5240718 -0.23571783
H 2.3876092 -0.08189457 -0.63976175
