11

C 1.04426281 -0.84629670 -1.32977116
C 0.24320530 -0.19160321 -0.27623326
C -0.55508912 0.49254322 1.32138876
C -0.83273808 0.59469788 -0.13018592
N -0.92073721 0.83194783 2.46198245
O 0.57110687 -0.33544223 1.07283000
H 2.08125342 -0.50099546 -1.28360218
H 0.63101504 -0.61549899 -2.31310971
H 1.04244691 -1.93230911 -1.18299482
H -1.74068132 1.43187179 2.42531662
H -1.56404457 1.07108472 -0.76562083
