11

C 0.86664382 0.01386950 1.97334183
C -0.07262887 -0.20486594 0.89075559
N -0.12472334 0.76324481 2.07124263
C 0.20096598 0.41040215 -0.45178922
C -0.57618659 -0.15154509 -1.61857055
O 1.01369602 1.30177025 -0.56293360
H -0.77612170 -1.03585288 0.92669287
H 1.79678720 -0.21323062 2.47816655
H -0.41756463 -1.23120950 -1.70096973
H -0.26215439 0.33909809 -2.54083801
H -1.64871357 0.00831903 -1.46509868
