11

C -0.06043581 0.46986517 0.7850254
C 0.2517074 -0.04980098 -0.5891468
N 0.14706215 1.9685618 0.9956315
C 0.9639748 1.1861863 1.5195581
C -0.68651974 -1.0975767 -1.1396242
O 1.216481 0.36178184 -1.1951433
H -0.7488394 -1.9524143 -0.45918703
H -1.6958945 -0.68316966 -1.2337182
H -0.91070426 0.030443527 1.3052995
H -0.33529034 -1.4291859 -2.1176822
H 1.8584588 1.1953092 2.1289876
