11

C 0.50877595 -0.96423596 1.5002531
C 0.1668476 -0.1250396 0.31895038
N 0.6373288 1.033971 -0.00889589
C -0.031423375 1.3586714 -1.1803719
C -0.87837905 0.36099237 -1.4983952
O -0.76158404 -0.6044605 -0.5420048
H -0.3865359 -1.1946592 2.084193
H 1.2145061 -0.41749874 2.1264417
H 0.96212244 -1.9107735 1.19358
H 0.1520275 2.2880304 -1.7005242
H -1.5836861 0.17500211 -2.2932265
