10

O 1.40001796 2.05676834 -1.32982745
C -0.06785397 0.07481480 -1.09461827
O 0.75775371 0.88260755 1.44328274
C 0.05532914 -0.10076236 1.40399098
C -0.47799955 -0.69237742 0.12820750
C 0.72451469 1.13040567 -1.13862851
H -1.57174686 -0.74707297 0.22397058
H -0.23481370 -0.62882985 2.33365564
H -0.14271475 -1.73957775 0.09578111
H -0.44248683 -0.23597547 -2.06581427
