11

C -2.25048902 1.19201321 -0.63220631
C -0.24130976 -0.37479493 -0.00639159
N 0.57145523 -0.64811693 -1.16429406
C 0.58803001 0.26338116 1.10116678
N -1.37126087 0.48012894 -0.31770748
H -0.65948469 -1.32402178 0.34120056
H -0.02499879 0.44361566 1.98801695
H 0.99916177 1.22178341 0.76453035
H 0.01621755 -1.06705814 -1.90190580
H 0.95798765 0.21730711 -1.53112674
H 1.41469109 -0.40423784 1.35871712
