11

C -0.2371074 -0.22492273 0.31889632
C -0.6691586 0.47487566 -0.946063
N 1.389306 -1.1487298 -0.70612866
C 0.7855357 -1.8877139 -0.0038230945
N 0.36353332 0.5502635 1.2749747
H 0.59154385 0.059294313 2.1303928
H 1.1465851 1.1019435 0.94879955
H -1.5214232 1.1182771 -0.6959839
H -1.0059177 -0.8670227 0.7366007
H -0.97909707 -0.2587391 -1.6926718
H 0.13619994 1.082474 -1.3649932
