11

C -1.9658489 1.5766422 -0.7313814
C 0.45147213 0.03445977 1.192771
N 0.646644 -0.57274693 -1.1644783
C -0.28346887 -0.33189428 -0.09074182
N -1.2388303 0.7105952 -0.4149364
H 0.15509923 -0.8103495 -2.0187619
H -0.25530693 0.18899019 2.0121462
H 1.1407489 -0.7733401 1.453103
H -0.8645546 -1.2462847 0.060756452
H 1.0252289 0.9575013 1.052465
H 1.1888164 0.2664269 -1.3509419
