11

N 0.52124286 0.7010475 1.762095
C 0.48808023 -0.106748186 -1.2318081
C -1.1326411 -0.36836433 0.15679492
O 0.4731734 1.1380368 -0.89767206
C 0.17072265 0.21325858 0.6804847
O -0.709553 -0.7895052 -1.1273106
H 1.4117758 1.1543233 1.8577356
H 1.1326271 -0.4957273 -2.0268211
H -1.4985877 -1.2217504 0.73372585
H -1.8696821 0.43935284 0.115269974
H 1.0128419 -0.6639237 -0.022494268
