11

N -0.26617814 -1.65918322 0.35379125
C -0.69865435 0.72457061 -1.52523220
C 0.25747358 -0.71711006 1.01847080
O 0.54220384 0.50564982 -1.06386554
C 0.69035475 0.55852836 0.34714646
O -1.65084345 1.03025394 -0.86027307
H -0.68747011 0.61023797 -2.61781224
H -0.50711708 -2.43924925 0.96163609
H 1.75614188 0.72612343 0.52169447
H 0.44126340 -0.73764564 2.10063441
H 0.12282530 1.39782411 0.76380950
