12

C 0.119242534 -1.9505541 1.0159786
C -0.3943886 -0.55576074 0.7688326
O -1.2607276 -0.035957333 1.4434462
N 0.24505447 0.047725324 -0.3256807
C -0.14151771 1.2555143 -0.5732403
N 0.38281277 1.947364 -1.5948191
H 0.09299809 2.8882568 -1.7907107
H -0.3884533 -2.3824725 1.8796941
H 1.0929981 1.5146551 -2.1633866
H -0.04995139 -2.568263 0.128204
H 1.2009234 -1.9200399 1.1845012
H -0.89899087 1.7595326 0.027180802
