11

C 0.132268 -1.2063408 -1.6507697
N -1.165392 -1.1758527 -1.028969
C 0.74544257 1.1672261 0.86988515
N 0.9517904 -0.4214051 -0.951234
C -1.0311626 -0.394118 0.053595547
N 0.19493896 0.10942802 0.041317496
H -0.6907378 -2.2147224 -1.3224094
H 0.092522286 1.3258532 1.7292871
H 0.8203835 2.0837865 0.28121498
H 1.737466 0.8597456 1.1972557
H -1.7875191 -0.13360053 0.7808262
