12

N -1.00471662 -0.75580674 -0.21656056
C 0.19347028 -1.23039712 0.50536220
C 0.78558590 0.15236339 0.30200812
O -0.71895225 1.40565859 -1.28066747
C -0.59563260 0.65035775 -0.12108838
N 1.95800516 0.60743737 0.32832802
H 0.71390605 -2.06526829 0.02692347
H -0.35139659 0.86629813 -1.99540065
H -1.89245559 -0.96998404 0.22626254
H 0.03536104 -1.46067379 1.56594214
H 1.96650530 1.57280144 -0.01258078
H -1.08967977 1.22721288 0.67147144
