11

O -0.3934672 2.1094902 -0.6286021
C -0.26902142 -0.95845675 1.0372434
C 0.6539252 -0.13927962 -0.8453393
C 0.6280521 -1.2422632 0.0025968254
C -0.24719913 0.7916943 -0.30112094
N -0.79631096 0.28081235 0.92892617
H 0.057105612 2.6380079 0.04293828
H 1.2379419 0.011295716 -1.7438134
H 1.1706669 -2.1678963 -0.13366553
H -1.4292845 0.2949615 -0.18134989
H -0.6124085 -1.6183664 1.8221866
