11

O 0.057545125 -1.5019511 1.5213281
C 0.5356017 -0.6250198 0.54878956
C -0.3482603 1.1684324 -0.59342295
C -0.19259031 -0.03251199 -1.4455456
C 0.053183857 0.8105886 0.6266993
N 0.25614324 -1.0586194 -0.8266514
H -0.8986483 -1.5853431 1.4104744
H 1.6290771 -0.6373244 0.66102487
H -0.7318704 2.1245217 -0.9286225
H 0.08568712 1.4087235 1.528287
H -0.4458688 -0.07149612 -2.502361
