11

O 0.61500119 -0.97624818 1.80064458
C 0.70588053 -0.47814746 0.50179338
C -0.68428324 -0.44611886 -1.20850505
C -0.55684169 0.96381263 -0.77437900
C 0.25227932 0.95265061 0.28538820
N -0.02727423 -1.27629242 -0.48986796
H -0.31787810 -1.00145034 2.05094380
H -1.28962868 -0.77646365 -2.04931285
H -1.05242126 1.80648678 -1.24120162
H 0.58538276 1.78770965 0.88821545
H 1.76978304 -0.55593840 0.23628135
