11

O -1.0501837 -2.103888 1.4195075
C -0.86577725 -0.6537642 -0.5464769
N 0.3437852 -0.5524717 1.5946665
C -0.17043205 0.4065424 -0.9587923
C -0.5641148 -1.1353227 0.8159587
C 0.86829054 0.97398084 -0.053741574
H 0.90914416 2.0670197 -0.044678822
H -0.32664996 0.8678018 -1.9324874
H 0.60695636 0.73641664 1.0632887
H 1.8689625 0.5674628 -0.23061515
H -1.6199812 -1.1737778 -1.1266294
