11

O -1.5229514 0.36282063 -2.4927776
C 0.99312377 0.44639125 1.021842
N -0.369039 1.3733814 -1.7367119
C 0.064957246 -0.68398863 0.6988483
C -0.73775125 -0.78082186 -0.3663994
C -0.80812377 0.2551043 -1.3803625
H -1.3802812 -1.6420071 -0.5254603
H 0.7196755 0.88297015 1.9880571
H 0.04587405 -1.510978 1.4104425
H 2.0149868 0.06470969 1.1189991
H 0.9795295 1.2324183 0.2635229
