11

O -1.4750576 1.630546 1.2665237
C -0.75268763 0.84308267 0.69205123
N -0.7556721 0.56065136 -0.6529399
C 0.22488077 -0.4268528 -1.0340589
C 0.8725615 -0.74515015 0.2893636
C 0.32032594 -0.027772952 1.2661756
H -1.3904418 1.0134964 -1.2887577
H 0.9532235 -0.031867385 -1.7537348
H -0.23500696 -1.3174034 -1.4820048
H 1.6759025 -1.4703871 0.37625214
H 0.56197184 -0.028342422 2.3211298
