11

O -2.82987811 0.47957223 -0.65326908
C -0.70743214 -0.85280393 -0.24591355
N -1.57880055 1.57514536 -0.25463804
C -1.54676250 0.32629586 -0.35298688
C 0.58748445 -0.78029830 0.08028305
C 1.36959255 0.46303694 0.37354249
H 0.76933620 1.37059590 0.27814725
H 2.22288604 0.52852000 -0.30977775
H -1.19741464 -1.80126543 -0.44622091
H 1.13654667 -1.72128958 0.14117634
H 1.77444199 0.41249117 1.38965704
