11

O 1.20028550 -1.64619538 -1.22905499
C 0.07412823 -1.24678854 -1.13123764
C -0.30130666 0.10770645 -0.53575724
C 0.89858737 1.25149841 0.83894158
N -0.05467734 0.63067134 1.69589757
C -0.78040335 -0.04819382 0.88627265
N 0.81669098 1.01176406 -0.41369358
H -1.08358029 0.55308327 -1.16299405
H 1.64565969 1.90502003 1.27849992
H -1.61196914 -0.66704835 1.21056264
H -0.80341491 -1.85151774 -1.43743665
