9

O 0.84064350 -0.42693833 -1.82875440
C 0.64289987 0.44476393 0.44519046
N -0.42841700 0.36513058 1.28161536
N -1.44878472 -0.27786788 0.72943277
N -1.07747016 -0.63074176 -0.46643009
C 0.18952337 -0.20779004 -0.67437354
H 1.57135780 0.92699097 0.70130374
H 0.23593919 -0.91396718 -2.40683900
H -0.52569172 0.72042003 2.21885463
