9

O 1.6796395 0.9301952 0.6050203
C 0.5632622 0.30720696 0.19354519
N 0.42836517 -0.2474481 -0.9996627
N -0.81009555 -0.7267876 -0.95652443
N -1.4800665 -0.5295711 0.15739667
C -0.6239868 0.1366573 0.9261696
H 2.3251908 0.8921516 -0.11249759
H -1.2094377 -1.2177877 -1.7397451
H -0.872871 0.45538375 1.926298
