12

C 1.4012262 -0.2920149 0.88223934
C 0.33568138 -0.5038505 -0.18582326
C -0.5911294 0.6947969 -0.31832507
O -0.22193433 1.8348042 -0.11223346
N -1.8681316 0.39633393 -0.6999078
H 2.1136444 -1.1218531 0.8889621
H 1.9436941 0.6386471 0.6960538
H 0.95118636 -0.22079271 1.8773333
H -0.24625133 -1.4129119 0.015221799
H 0.8097625 -0.64466083 -1.1658317
H -2.1408162 -0.5335522 -0.96742785
H -2.4869325 1.1650542 -0.9102609
