12

C 0.32554432 -0.52275768 0.53299078
C 0.10822174 0.06126055 -0.65221048
C -0.68449231 1.31708841 -0.87655193
O -0.14444351 -0.08777754 1.72846467
N 1.11491900 -1.65278734 0.73257233
H 1.33838070 -2.12970921 -0.12827416
H -0.04669620 2.20314606 -0.99529346
H -0.62927611 0.73186549 1.58786712
H 0.72264923 -2.28650674 1.41867650
H 0.57871566 -0.39879999 -1.51753079
H -1.38247585 1.53043423 -0.05328766
H -1.30104710 1.23454394 -1.77742262
