10

N 0.20606317 3.3470042 0.5137286
C -0.9767695 -1.1461153 0.27013645
O -0.88544226 0.1769944 0.26510584
C 0.3867478 0.784624 -0.0113249915
C 0.2679415 2.216159 0.29046214
N 0.14064984 -1.7815627 -0.12655786
H 1.176653 0.33745867 0.6008732
H 0.6503581 0.6487396 -1.064945
H 0.0063580414 -2.7778997 0.07557557
H -0.9725597 -1.8054024 -0.8130541
