12

C -0.68136656 0.10283169 0.3131946
C 0.0046835877 1.4328225 0.6452045
N -0.036898043 -0.4694919 -0.971631
C 0.71295893 -1.4628733 -0.5493459
O -0.47248513 -0.8439001 1.2153558
H -1.7414333 0.2941477 0.022161286
H -0.45022804 1.8047947 1.5658869
H -0.34109756 -0.4127607 -1.9288063
H -0.09927928 2.185299 -0.14514203
H 1.706054 -1.5734158 -1.0090564
H 1.0642484 1.2367448 0.8386834
H 0.3348432 -2.2941985 0.0034954757
