11

C -0.38726282 0.9858833 0.4690221
C 0.42906067 -1.4090195 0.9901936
C -0.064574905 -0.3802024 0.17710286
N -0.6127979 1.6520716 -0.7286188
C -0.4105588 0.7793206 -1.6440308
O -0.06542211 -0.47289702 -1.1961069
H 0.8829072 -2.280848 0.53596807
H -0.46371585 0.90161866 -2.715856
H 0.27779835 -1.3576746 2.0601733
H 0.9402168 0.15335087 0.60656863
H -0.52565056 1.4283967 1.4455838
