11

C -0.8800917 -0.7987553 -1.1903639
C -0.12570082 -0.06314375 -0.14160766
C -0.26278073 1.1331725 0.47073692
N 0.7593653 1.3014027 1.398501
C 1.4460536 0.21870036 1.2978013
O 0.9843974 -0.6646925 0.38960856
H -1.2575827 -1.7533128 -0.8107534
H -1.7308314 -0.19512106 -1.5147332
H -0.25022003 -1.0050637 -2.0605478
H -1.0179831 1.8903732 0.31678286
H 2.3353744 -0.06355971 1.8445756
