9

O 0.8508629 0.182874 -1.4445168
C 1.1112237 -0.98366773 -0.7997404
C -0.29953328 0.24082962 0.42797723
O -1.1132046 0.5611736 1.4437579
C 0.038995333 0.95682317 -0.66283035
N 0.4037774 -0.9593623 0.3806659
H -1.0261539 -0.12069258 2.1236289
H -0.17113559 1.9627501 -0.9906899
H 0.205168 -1.8407278 -0.47825262
