9

O 1.0052456 -0.947834 -1.5002962
C 0.30980024 -0.3484274 -0.5197754
C -0.94222564 -0.6188269 -0.079205155
O -1.1976113 0.2679009 0.9394512
C -0.08888501 1.0031339 1.0378375
N 0.8475503 0.69147307 0.20165923
H 1.863015 -0.50428087 -1.5427964
H -1.7197376 -1.3200731 -0.32940593
H -0.07715149 1.7769346 1.7925309
