9

O 1.5731355 -0.7918538 -0.29186586
C -0.9024007 -0.5122761 -0.36253515
C 0.37547734 -0.22062351 -0.08290048
O -1.6721853 0.516525 0.14102602
C -0.92516756 1.4694561 0.7439712
N 0.3347445 0.9914641 0.591523
H 1.1537454 1.4718215 0.93233407
H -1.4018395 -1.3253924 -0.86292803
H 1.4644902 -1.599121 -0.8086248
