17

C -1.532295 2.2375221 0.1385161
N -0.6669683 1.1751033 -0.33922127
C -0.11142861 0.31642148 0.5958294
O -0.2252859 0.5189577 1.7982491
N 0.60614276 -0.73921543 0.07996833
C 1.045721 -1.786279 0.9799312
C 0.834147 -0.93606114 -1.3382427
H -2.4685729 1.8643728 0.57603633
H -1.0090711 2.8052788 0.9113694
H -1.7650385 2.9072387 -0.691633
H -0.9305756 0.7733189 -1.2266772
H 0.5285154 -2.7339206 0.7758878
H 0.8260108 -1.4723738 2.0008442
H 2.124557 -1.955335 0.8793608
H 0.995132 0.025976699 -1.8361716
H 1.7409666 -1.5346122 -1.4706444
H 0.0080434 -1.4663937 -1.8334026
