11

C 1.1193162 0.06554981 -2.2646267
C 1.0616738 0.50556505 -1.0246489
N 0.69628906 0.4960269 0.19373408
C -0.97376126 -0.40113962 1.7228084
C -0.4916911 -0.28463724 0.30311894
O -1.039603 -0.7948287 -0.6471528
H -0.1935261 -0.8758167 2.3275018
H 0.797001 0.6780113 -3.1051204
H 2.0568624 1.0001059 -1.3989267
H -1.1401283 0.599059 2.1349552
H -1.8924325 -0.9878955 1.7583576
