11

C -0.09419769 -1.32555562 -2.19942457
C 0.31787179 -0.48982494 -1.28171962
N 0.77189109 0.26477967 -0.43481336
C 0.01846125 1.07294039 0.46428991
C 0.00036115 0.53178658 1.86992161
O -0.46639772 2.11400351 0.11354712
H -0.54540614 -0.41835896 1.89308476
H -0.21732692 -2.37731673 -1.96187920
H -0.32094570 -0.96788760 -3.19601418
H 1.02239740 0.34195235 2.20679115
H -0.48670863 1.25348126 2.52621647
