11

C 1.5188501 0.72373724 -0.38005123
O 0.107421234 0.6683011 -0.3889178
C -0.38486755 -0.47173762 0.26260623
C -1.8927962 -0.42759603 0.1994141
O -2.5919762 -1.2862362 0.67949146
H 1.9562303 -0.140351 -0.9010412
H -0.08330582 -0.5093274 1.322365
H 1.9126692 0.75756425 0.64625466
H -2.306126 0.45493478 -0.32298115
H 1.8074489 1.6363139 -0.9031297
H -0.04354805 -1.4056032 -0.2140104
