11

C -1.3052119 0.10209308 -0.7855716
O 0.06924529 -0.016212976 -1.0845524
C 0.81827724 -0.529074 -0.016223006
C 1.0202678 0.49455822 1.0872031
O 1.2854145 0.206026 2.2267935
H -1.7461795 -0.87428343 -0.5393003
H -1.4861784 0.7910848 0.05379859
H -1.7915709 0.49878833 -1.6772197
H 1.8073773 -0.7740369 -0.42141667
H 0.38776508 -1.4489402 0.40822592
H 0.9407932 1.549997 0.74826247
