11

N -0.44682607 -1.085843 0.71302027
C -0.009637726 0.67431444 -0.7137295
C 0.574551 -0.53912866 1.3458128
C 0.92436194 0.6807481 0.48466083
C -0.8685019 -0.48319343 -0.53965485
O 0.13765877 -0.49634877 -1.5301218
H -0.3142934 1.573122 -1.2417551
H -0.8879253 -1.9303066 1.0536228
H 0.8051748 1.5864664 1.0951036
H -1.8949609 -0.616474 -0.8644399
H 1.9803987 0.6366434 0.19748096
