10

C 0.38603356 2.053262 1.5009048
C 0.18065701 1.091788 0.80531716
C -0.059942063 -0.041708287 -0.01932271
C -1.2051766 -0.72095066 -0.37135074
N -0.8693021 -1.7429546 -1.1991981
N 0.4144187 -1.737709 -1.3815503
N 0.914383 -0.7228349 -0.67909074
H 0.5594324 2.90733 2.1191492
H -2.2283068 -0.5349847 -0.083035536
H 1.9078029 -0.55123794 -0.6918229
