10

C 1.22584654 0.05010825 -0.10100794
C -0.18981789 -0.26575626 -0.16712133
C -1.03768717 0.63919150 0.58387849
C -1.77193611 1.36926491 1.19465496
N -0.62273901 -1.26534061 -0.83898070
N 2.76281224 -1.37958752 -1.33265303
N 2.05485284 -0.71153293 -0.75842566
H 1.64956983 0.87448982 0.45140325
H -1.63890091 -1.32453611 -0.76748028
H -2.43200035 2.01369887 1.73573237
