10

C 0.85620546 -1.0086184 0.028374836
C -0.1866082 -0.0148411915 -0.05022551
C 1.710489 -1.8478353 0.0873315
C 0.14253074 1.3477715 0.25852892
N -2.071693 1.7740765 -0.16763416
N -1.4102874 -0.26131785 -0.37637416
N -0.97627026 2.0533202 0.1281343
H 2.471616 -2.59426 0.13892278
H -1.6194935 -1.2312502 -0.59773993
H 1.0835111 1.7829545 0.5506814
