10

O -1.0392294 1.9324548 0.5182153
C -0.73274606 -0.46757096 0.98080635
C 0.4345617 0.50401837 -0.7584459
N 0.07149296 -1.3329092 0.3707432
C -0.45574427 0.735952 0.24739407
N 0.72308195 -0.85245454 -0.77404875
H 0.07166819 -2.3318927 0.5041038
H -1.6365498 1.7760453 1.2608624
H 0.8652719 1.1625834 -1.5006258
H 1.6981928 -1.1262264 -0.84900457
