11

O -1.2731843 -0.17759682 1.9296058
N -1.1642066 -0.76824284 0.6724605
C -0.23989478 -0.23024817 0.00719371
C 0.29431486 -0.46678028 -1.3774874
O 1.2550815 0.58761036 -1.1731099
C 0.79030824 0.8572614 0.16397955
H -2.0019746 -0.6667476 2.3300009
H -0.39350453 -0.24696031 -2.2010114
H 0.7741476 -1.437318 -1.5459886
H 1.5622809 0.6756124 0.9207269
H 0.39663163 1.87341 0.27362975
