11

O -1.4094427 0.13518882 1.1410683
N 1.1166179 0.3044659 -1.0353632
C 0.16870098 0.20294727 -0.2071808
C -0.46930155 -0.8481036 0.6654188
O 1.7659677 -0.91885775 -1.1918602
C -0.8397681 1.18018 0.32870552
H -1.5562531 1.5761068 -0.39974692
H -0.9581177 -1.671335 0.13222098
H 0.16125076 -1.2465191 1.468298
H -0.43568534 2.0008397 0.9318634
H 2.456031 -0.71491283 -1.8334239
