11

O -0.87215184 1.04382894 1.20690259
N 0.62762817 -0.57287315 -1.29977353
C -0.15282157 -0.20358667 1.14782571
C 0.07042239 0.00996948 -0.32789145
O 1.20756392 -1.77134765 -0.88746220
C -0.68890758 1.30070732 -0.19912160
H -0.78101789 -1.06212995 1.41093004
H -1.64122594 1.35143041 -0.73881471
H 1.59427126 -2.11375139 -1.70146587
H 0.74851874 -0.19648259 1.77110840
H -0.11227973 2.21423538 -0.38223757
