10

O 1.4853742 1.3528074 -0.31793296
C 0.58952713 0.37210658 -0.09404602
C -0.6227374 0.13357995 -0.77498406
C -1.3028642 -0.71400976 0.07548666
N -0.59465724 -1.0065099 1.1885474
N 0.54580647 -0.33265486 1.1562613
H 1.9219195 1.5598356 0.52029216
H 1.1692609 -0.738236 0.04717415
H -0.9146263 0.5369531 -1.7324817
H -2.2770033 -1.1638719 -0.06831679
