10

O -1.01710388 -1.49375692 0.82639249
C -0.38982314 -0.73659916 -0.15707260
C 0.71795789 1.22691937 -0.26550178
C 0.87744263 -0.01152991 0.18509671
N -0.60516603 1.39385280 -0.82493451
N -1.25069293 0.32770660 -0.72697783
H -0.20739843 -1.41778553 -0.99963861
H 1.38227373 2.08064031 -0.26404777
H 1.73579612 -0.46029382 0.66480488
H -1.24328591 -0.90915395 1.56187918
