9

N -0.7538646 1.36371 1.4166583
C -0.42454007 0.2624007 0.88595587
N 0.14409986 0.23670015 -0.3830947
C 0.5529401 -0.79716104 -1.071936
O 1.0139107 -0.38044488 -2.183114
H 0.63780665 0.7001314 -1.5596371
H -1.1471292 1.1921945 2.3410401
H 0.5231651 -1.8505623 -0.79098845
H -0.54638827 -0.72696847 1.3451157
