11

O -1.1422821 -0.7994839 0.25704798
C -0.9850753 0.598079 0.37716
N -0.06483148 0.8749888 -0.8913189
C 0.84138256 0.09113811 -0.29441014
C 0.17345117 -1.2261416 -0.011652314
O -1.8320577 1.3979567 0.69441646
H 0.1084958 0.546654 1.1800052
H 0.62771535 -1.7551193 0.8328547
H 0.16483638 1.8594483 -0.9530273
H 1.9178734 0.26012862 -0.2770309
H 0.19049214 -1.847649 -0.9140446
