11

O -1.2645955 1.3680775 -1.0672071
C 1.1839533 -0.073783144 0.4587598
N 0.7380206 0.614869 1.423884
C -1.7207948 0.47753978 -0.40359005
C 0.2589589 -0.77107555 -0.49882117
O -1.1038429 -0.674911 -0.102969415
H 1.5065833 1.0210913 1.9579742
H 0.40034655 -0.35517797 -1.5018878
H 2.2481015 -0.2186768 0.22935975
H -2.7326477 0.45318633 0.024510806
H 0.48591694 -1.8411396 -0.5200131
