11

N -0.2540585 0.79531056 -0.90493345
C -0.73776966 -0.5261656 -0.16791236
O 0.010302674 -1.4198807 -0.7700506
C -0.16690579 -0.09420296 1.2134846
C 0.99758035 0.47721812 -0.522836
O 1.1615607 0.31825772 0.76144254
H -0.009539737 -0.9128393 1.9125441
H -0.39418113 0.66757524 -1.9028374
H -0.6789317 0.75806713 1.6613802
H -1.8372552 -0.62041044 -0.17059475
H 1.909198 0.55707043 -1.109687
