11

N 0.16641575 -1.0722152 0.14572938
C -0.18215688 -0.5199167 -1.1447546
O 0.34795636 -0.27137008 2.3026938
C 0.0788784 1.2026535 0.34714544
C 0.22372979 -0.10803896 1.1098232
O 0.10436008 0.85638463 -1.0229685
H 0.4287857 -0.93286544 -1.9520819
H 0.90036255 1.8896705 0.56978285
H -1.2473211 -0.68276906 -1.3743788
H 0.04796379 -2.0429401 0.38830265
H -0.8689743 1.6814073 0.6307064
