11

N 0.54494669 -0.79555369 -0.51836692
C -0.12324834 0.26783149 -1.23573210
O 0.68898809 -1.48311368 1.68011408
C 0.37626561 -0.67934822 0.83087012
C -0.30417863 0.67108318 1.01500235
O -0.32122414 1.27190275 -0.26425093
H -1.08434512 -0.07378040 -1.65216611
H 0.80101880 -1.67604521 -0.93590883
H 0.49367238 0.67795801 -2.03994596
H 0.24709212 1.30647418 1.71412667
H -1.31898731 0.51259143 1.40625734
