11

N -0.4089431 -0.55416167 -1.4681591
C 0.19623543 -1.294891 -0.6423683
O 0.7719496 -0.8162574 0.47125995
C 0.69701946 0.5960913 0.632226
C -0.7308502 1.0808496 0.80198306
O -1.0295544 2.243916 0.70962554
H -0.79037285 -1.0995847 -2.2342563
H 0.34141332 -2.3768082 -0.69202346
H 1.159243 1.1193268 -0.20866919
H 1.2551476 0.807259 1.5504681
H -1.4612877 0.2942601 1.0799134
