9

N 0.48163378 -1.897661 -0.14144763
C -0.11151875 -0.8262004 0.1279175
O 0.31699628 0.056921385 1.1133256
C 0.6057331 1.3491793 0.9032344
O 0.4705654 1.5609933 -0.39876205
C -1.388237 -0.50439507 -0.48932853
N -2.4134858 -0.25857934 -0.9597198
H 0.6924803 2.4912364 -0.55301553
H 1.3458325 -1.9714948 0.39779603
