9

O -1.28442088 0.67709255 -1.45788660
C 0.78148837 -0.12198251 -0.42804661
N 0.98809425 -0.46602102 0.87291805
N -0.10271775 -0.32293736 1.61092624
C -0.54071269 0.24627974 -0.42535312
N -1.04376388 0.11345802 0.82245993
H 1.54249937 -0.16762074 -1.18939084
H 1.83373042 -0.80034932 1.30816327
H -2.17419711 0.84208055 -1.11379012
