11

O -0.5670641 0.17142306 1.3108534
N -0.22971067 -0.9221094 -0.5920331
C 0.010269186 1.1087266 0.40322372
C -0.7395647 -1.0247263 0.68671983
O -1.2593278 -1.9774518 1.1981331
C 0.61985695 0.24318248 -0.70817524
H 0.5403149 0.71479326 -1.6895188
H -0.009936807 -1.7883953 -1.0580622
H 0.74517334 1.7085315 0.9407858
H 1.6725682 0.008904202 -0.50772685
H -0.7825784 1.7571219 0.015800236
