11

O -0.16097228 -1.74987033 1.96055780
N -0.08063889 -1.08599947 -0.26011238
C -0.14317087 -0.90671789 1.10723479
C 0.27965011 0.15079971 -0.91865541
O -0.19294645 0.42894293 1.35943513
C -0.23130097 1.14973783 0.12873332
H -1.26591963 1.44647790 -0.07283617
H -0.22358852 0.26715763 -1.88041971
H 0.26271717 -1.97794438 -0.58023084
H 1.36273995 0.23921761 -1.06820641
H 0.39343042 2.03819856 0.22449991
