11

C -0.78840184 -0.4589372 0.5387288
N 0.09869331 -1.7804815 -1.0012652
C -0.85898834 -1.698791 -0.040860943
C 0.7559206 1.4926987 0.024108395
N 0.22753073 0.14839317 -0.11854374
N 0.74875665 -0.6661869 -1.0450146
H -1.3471711 0.018433496 1.3295048
H 1.6165661 1.5664749 -0.6415028
H 1.0696893 1.6714776 1.0547223
H 0.0031390844 2.2293966 -0.26784095
H -1.5257344 -2.5224774 0.16796374
