11

C -0.72935059 -0.66234954 0.38957717
N 1.18226010 -0.71753876 1.50658094
C -0.06582314 -1.24984995 1.43490907
C 0.06912145 1.09540882 -1.26311052
N 1.32237046 0.15774522 0.56828682
N 0.17447430 0.20750158 -0.11977139
H -1.72375692 -0.78184266 -0.01329997
H -0.78664838 1.76410683 -1.14874842
H -0.40063190 -2.00799998 2.12753377
H -0.03240060 0.51690567 -2.18488360
H 0.99038554 1.67791275 -1.29707384
