11

C 0.240029 1.240634 0.4857253
N 0.9229315 0.09858023 0.27378353
C 0.07139945 -1.564925 0.38510993
C -0.522107 1.4632007 -0.65323085
N -0.35583153 0.44599396 -1.5102184
N 0.5357658 -0.36082736 -0.9723756
H -0.08320538 -1.3925577 1.4494748
H 0.85659397 -2.2827613 0.18274881
H -1.1552662 2.3048158 -0.9011432
H 0.35362273 1.8226233 1.3889897
H -0.8639326 -1.7747767 -0.12886408
