11

O -0.8552084 1.9311053 -0.20843828
C 0.12077045 -1.0574213 1.0237151
C -0.17839883 0.6251227 -0.24220885
C 0.88617843 -1.2467312 -0.12141252
C 0.70425254 -0.11435463 -0.9782845
N -0.5597358 0.12675808 0.93162376
H -1.1776347 1.5071208 0.8025393
H -1.6146398 1.9494312 -0.81555873
H 1.1452875 0.08520605 -1.943498
H 1.5138911 -2.1022878 -0.334634
H 0.015237588 -1.7039492 1.8861567
