11

O 0.18439233 -1.9087192 1.1301092
C 0.028610615 -0.76492125 0.4151314
C -0.8749029 -0.3677965 -0.53710544
C -0.50151455 0.9656681 -0.9090587
C 0.5973224 1.3148271 -0.1780477
N 0.91754216 0.2412316 0.6364603
H -0.5123385 -2.5199757 0.8686117
H -1.7000062 -0.9495496 -0.92368317
H -1.0029186 1.581798 -1.6397854
H 1.1841894 2.2188075 -0.15556063
H 1.6796238 0.18863016 1.2929287
