11

O -0.15000317 1.6058525 -1.3617429
C -0.041824978 0.48512718 -0.3524538
C -0.6625505 -1.3545123 0.40295085
C 0.76308334 0.37461787 0.75130045
C 0.33463722 -0.88596046 1.2576263
N -0.89686626 -0.48040214 -0.6208183
H -0.9440613 1.2948848 -1.854015
H -1.2288692 -2.2769382 0.47237325
H 0.71621096 -1.3761457 2.1430635
H 0.6018497 1.5625559 -1.9785737
H 1.508394 1.0509208 1.1402897
