9

O 0.80023205 1.9043418 1.0620301
C 0.29085326 0.9929276 0.4818905
N 0.7542071 -0.35805094 0.42362761
C -0.26362523 -1.2521212 -0.32544833
C -1.1034602 -0.2792961 -0.7170083
O -0.8422057 1.005032 -0.22980021
H -1.984388 -0.33259547 -1.3408542
H 1.3088372 -0.7157715 1.1914694
H 1.0395498 -0.9644662 -0.5459067
