11

N 2.4785793 -0.19371648 0.8185991
C -1.0252936 -0.4922179 0.040040754
C 1.3320476 0.014611607 0.36128262
C -0.35893074 1.6941781 -1.19824
C -1.1619136 0.74274874 -0.8205623
O 0.25933215 -0.77079296 0.57785225
H -2.1618607 0.92287743 -1.2410284
H 2.5141838 -1.0383345 1.3890512
H -1.314592 -1.3698525 -0.5482588
H -1.7083335 -0.41113415 0.8926273
H 1.1467813 0.9016324 -0.27136347
