11

N 2.35296509 0.31306990 1.10296343
C 1.29043447 0.18452558 0.45367233
C -1.09814336 -0.20836132 0.21395193
C -0.96055507 -0.06113455 -1.28399299
C 0.02133140 0.20145398 -2.09614197
O 0.08276510 -0.07395782 0.99144758
H 2.20309087 0.20290938 2.10569233
H -1.80152460 0.54546356 0.58412050
H -1.50855011 -1.19900235 0.43807036
H -1.88632167 -0.19073695 -1.86303677
H 1.30450771 0.28577068 -0.64674665
