10

N -1.0492071 0.26267022 0.363723
C -0.65919 -0.96853286 -0.09945217
C 0.6686254 -0.88608485 -0.44009608
C 1.0949267 0.44513577 -0.17043678
C 0.011973277 1.129226 0.32358992
H -1.9740353 0.49476963 0.68192405
H -1.3576733 -1.7909161 -0.145944
H 1.2739491 -1.6883746 -0.8391247
H 2.0861142 0.8487771 -0.3245614
H -0.095482975 2.1533294 0.65037817
