9

O -1.1284345 0.5446711 1.7647859
C -0.5936369 0.4242494 0.52431715
C 1.3133826 -0.034556862 -1.569918
O 1.0341873 -0.8943819 -0.60600877
C -0.11055062 -0.8458594 0.0673122
N -0.6125311 1.1654968 -0.4900441
H -0.70560837 -1.7563893 0.06061644
H -1.6247846 1.3777078 1.770822
H 2.4279761 0.019062178 -1.5218829
