9

O -1.1554381 -1.2848355 -1.0823866
C -0.38115016 -0.4728657 -0.34593955
C 0.4767568 -0.7904 0.6544235
O 1.0299139 0.39260656 1.0836198
C 0.46979854 1.331294 0.31715107
N -0.37727395 0.887132 -0.5526083
H -1.6297238 -0.72487426 -1.7116163
H 0.79654616 -1.6929443 1.1467539
H 0.7705707 2.3548877 0.49060282
