9

O -1.74555810 -0.74872810 -0.82696360
C -0.47295357 -0.68032859 -0.53425736
C 0.56182342 -0.58462965 0.42130470
O 0.94018895 0.67971275 0.98105913
C 0.22407314 1.70195075 0.59886646
N 0.68116845 -0.75638882 -1.05787977
H -1.84057767 -0.78324895 -1.79182715
H 0.92487622 -1.37131903 1.07598611
H 0.72695926 2.54298014 1.13371181
