11

O 0.07488477 0.11093681 -1.45318
C 0.7530733 1.0448405 -0.664393
C -0.31285945 -0.92534673 -0.5741817
O 0.18539667 0.9791484 0.6409343
C -0.42320326 -0.23265338 0.76574874
N -0.97367024 -0.7020962 1.7933043
H -1.2668343 -1.3451445 -0.8973792
H 0.5934917 2.043287 -1.0737907
H -0.8963556 -0.06118947 2.5789888
H 1.824702 0.81175596 -0.59148043
H 0.44137445 -1.7235382 -0.52457076
