10

N 0.6019805 -0.8109521 1.507113
C 0.014286583 0.16955374 0.7449284
O -0.39981404 1.2180525 1.1859442
N -0.1014977 -0.17635457 -0.6064166
C -0.6393302 0.6737036 -1.5600934
O -0.76982033 0.3471356 -2.7150729
H 0.8307342 -0.516553 2.4448278
H 1.2509438 -1.4522314 1.0782007
H 0.13456397 -1.1050591 -0.93137145
H -0.92204666 1.6527046 -1.1480595
