10

N -1.8573724 -0.031926535 0.41335666
C 1.6452862 -0.04644689 -0.40368196
O -0.47298807 -1.837623 0.1546857
N 0.35944802 0.28416288 -0.17240219
C -0.6549435 -0.64659125 0.15396522
O 2.4335225 0.94065946 -0.7348479
H 0.1387953 1.2679945 -0.31701744
H -2.5637984 -0.6551764 0.7770366
H 2.8492754 -0.187427 -0.63826585
H -1.8772249 0.912374 0.76717114
