10

C -0.107367955 0.061621763 0.8282499
O -0.09828559 1.1147804 -0.11913792
C -0.6987895 0.8266018 -1.2900892
O -1.2781459 -0.1921806 -1.5461401
C 0.9922406 -0.93957967 0.5450397
O 1.7478046 -0.8694916 -0.388679
H 1.0536189 -1.760366 1.2908846
H -0.5951912 1.6879061 -1.9640656
H -1.075221 -0.45005012 0.8364187
H 0.05933665 0.5207578 1.8075192
