10

C -0.6679229 1.0668461 0.034092337
C 0.4479571 0.17734095 0.31211016
C 1.5604875 0.13595824 -0.7255881
C -1.5970975 1.7826141 -0.19992974
N 0.7540395 -1.9330038 -0.43360427
N 1.6583047 -1.1777263 -1.061706
N 0.031215573 -1.2317407 0.35039204
H -0.70381695 -1.6735097 0.8838842
H 0.93353266 0.42791834 1.264729
H -2.4166996 2.4253027 -0.42437977
