10

C 0.6581668 -2.3689535 0.5520082
C 0.046374004 0.16859497 0.21920224
C 0.37729624 -1.2094529 0.41577336
C -0.51306117 1.1601204 1.1602184
N -0.9044761 1.7880442 -0.9640614
N -0.986033 2.1428568 0.28172415
N -0.3141169 0.6237453 -1.061352
H -0.13641238 0.21327533 -1.9657634
H 0.89536524 -3.399344 0.6890649
H 0.87689734 0.8811135 0.67318565
