11

O -1.09944207 -1.86439718 1.54046389
C -1.38543619 -0.66731757 1.05061846
N 1.00346837 0.85096947 1.21904512
C 0.88771371 0.98459230 -0.04194654
O -0.06957383 0.37765451 -2.09935876
C -0.12521661 0.19197968 -0.76458011
N -0.98457707 -0.56574451 -0.22441472
H 1.47224099 1.66169809 -0.67369259
H 1.70565821 1.49797850 1.57965253
H -0.57552381 -2.39580631 0.90884268
H -0.82931175 -0.07160702 -2.49463002
