10

N 0.59102595 1.7469972 -0.07908151
C -0.5709128 -1.7397588 -0.023829492
O 1.5398328 -0.14950538 0.74744713
C -0.5851617 -0.33259803 -0.26495662
C 0.6008519 0.40248975 0.18500188
N -0.017658716 -2.8180585 0.051504876
H 1.4834148 2.2093093 0.0038328697
H -1.5105884 0.15532233 -0.54158324
H -0.06280804 2.1215665 -0.74764407
H -1.4679958 -1.5957644 0.6693081
