10

N -1.3172194 -0.64098275 -1.1596733
C -1.2083199 -0.7468868 0.09078456
O -0.17717344 -0.21876383 0.7766531
C 0.7664387 0.47385624 -0.03148974
C 1.8208069 0.9795506 0.8508148
N 2.6763937 1.3997037 1.5046183
H -2.162005 -1.1047778 -1.4859531
H -1.8791944 -1.250065 0.7916481
H 0.28554127 1.3063446 -0.5560395
H 1.1947316 -0.19797884 -0.78136295
