10

N -0.5859294 -0.36096138 0.22700106
C -0.13542792 -1.6308434 -0.004901204
O 1.0282993 -1.9539292 -0.004369128
C 0.33506602 0.74269384 0.38794813
C 0.2506983 1.6913816 -0.73166853
N 0.15589021 2.4419613 -1.6024529
H 0.15126403 1.2801642 1.3237721
H 1.3370053 0.3090715 0.43052325
H -1.5735846 -0.17582822 0.14609773
H -0.9632812 -2.3437102 -0.17195038
