12

N 2.1667428 0.39267948 -0.6961462
C 0.8851355 0.16516675 -0.28266683
N 0.70454127 -0.8430559 0.58527154
C -0.5394927 -1.0254868 1.0054519
C -1.6073517 -0.23879969 0.5867155
C -1.2941532 0.76534027 -0.31960592
N -0.062156875 0.9821297 -0.7704513
H 2.2874517 0.96535736 -1.5147579
H 2.8346338 -0.34337106 -0.53123266
H -0.6912085 -1.8440765 1.7060217
H -2.6176503 -0.40114003 0.9421397
H -2.0664916 1.4252564 -0.71073943
