12

N 0.27224672 0.9607401 0.23689592
C -0.86813885 -1.220178 0.9478548
N 0.28096384 -0.83556455 -1.0786364
C 0.2210427 -1.2090728 1.6753206
C -0.29427728 0.122170515 1.232255
C 0.33192828 0.4507866 -0.99966025
N 0.64099306 1.2912203 -2.0403404
H 0.4505869 0.95831025 -2.9697633
H -1.673365 -1.799789 0.52951354
H -0.71194065 0.75385594 2.0237544
H 0.4165346 2.254182 -1.8529754
H 0.93342566 -1.7266614 2.2957811
