12

N -0.376987 0.964505 -1.3454894
C -1.2069324 -0.14737833 1.1541901
N 1.9792193 1.1212515 -0.5680655
C -1.8784753 -1.0416044 0.47104093
C 0.77647406 0.6721641 -0.92470974
C -0.4218704 -1.0198845 0.25035602
N 0.12687331 -0.53935343 -1.034891
H -2.8257234 -1.4749674 0.19660388
H -1.2019393 0.67994297 1.84745
H 2.6520658 0.49083441 -0.16622473
H 0.22652692 -1.8181187 0.62583685
H 2.1507688 2.112609 -0.5060975
