10

O 0.8703402 0.5950944 -2.2758348
C 0.61566746 0.3585983 0.07356456
C 1.3721224 0.7456455 -1.1978997
N 1.0314803 0.47747457 1.2436527
O -1.1731147 -0.30397224 2.2497127
C -1.4428381 -0.572396 1.0917019
C -0.55349517 -0.48506963 -0.032027483
H 2.3827813 1.1570592 -1.0393636
H -0.6286807 -1.130869 -0.90145904
H -2.474263 -0.8415649 0.7879523
