10

O 1.7119069 -1.782369 0.8256791
C 1.1520799 -1.4688733 -0.19925521
C 0.19703752 -0.33858246 -0.26331455
N -0.3918999 -0.036661223 -1.3921943
O -1.1906695 1.0344707 -1.11953
C -1.0668597 1.3606905 0.18075198
C -0.19878048 0.5286899 0.79468167
H 1.3160298 -2.0027504 -1.1530579
H -1.6613564 2.2041407 0.5045896
H 0.13251187 0.5012444 1.8216497
