12

O 1.8474456 0.09671053 -1.3061315
C -1.5322752 -0.09610463 1.3244313
C 0.08267565 -0.49804515 0.04014998
N -1.3077577 0.9941556 0.5825137
N -0.28916723 0.739716 -0.29139146
C 1.1631687 -1.1343895 -0.64683706
N -0.68702406 -1.0566099 1.0383896
H 1.9314903 -1.574832 -0.01929936
H 1.7379193 -0.03552214 -2.2611427
H 1.2375742 0.87412727 -1.0206666
H -2.330601 -0.14501809 2.0506759
H -1.8534484 1.835812 0.5093085
