13

C -0.5483623 0.027898233 1.7068006
C 0.02461104 0.16940117 0.3300955
N 1.1370629 0.78338534 0.23227158
O 1.5610899 0.8732452 -1.1085534
C -0.7178155 -0.41549292 -0.8571475
O 0.061574325 -1.3150609 -1.6087133
H 0.08377569 0.53269446 2.4398592
H -1.5570842 0.454609 1.7508473
H -0.6327545 -1.0312337 1.9727503
H 2.4175825 1.3060842 -1.0254711
H -1.0983316 0.4126676 -1.4744198
H -1.5832535 -0.9811702 -0.49403775
H 0.8519055 -0.8170276 -1.8642814
