13

C -0.8227308 0.061763387 0.85602605
C 1.6135378 -0.70387155 0.33655173
N 0.17425549 0.028184555 -1.3940556
O -1.2980565 1.3850161 0.84275013
C 0.29177055 -0.18790795 -0.14278284
O -1.1156551 0.49073038 -1.7127117
H 2.0686965 0.012424595 1.0293871
H 1.4864371 -1.6464136 0.8819891
H -0.43938193 -0.12028671 1.8666805
H -1.6233014 -0.6697266 0.66709614
H -1.575178 1.5595744 -0.06711814
H 2.2896202 -0.86931574 -0.5041233
H -1.050014 0.65982866 -2.6596892
