13

C -0.80209965 0.03566198 -0.9569074
C 0.08794448 -1.3201225 1.1276331
N 0.7282153 0.9364877 0.6339073
O 0.74490374 2.1033428 -0.13979591
C 0.042074554 -0.078389086 0.29951492
O -0.033124942 0.39626727 -2.073696
H -1.2647095 -0.9339295 -1.1645007
H -1.6054788 0.7632018 -0.7552668
H 1.4425308 1.7909359 0.8627559
H -0.9221449 -1.6003313 1.4505827
H 0.7184691 -1.183221 2.0090597
H 0.48280725 -2.1492465 0.52941304
H 0.38061267 1.2393427 -1.8227003
