9

O 1.7434237 0.54203343 -1.6416737
C 0.8894854 0.35303926 -0.81981385
N 0.26884997 -0.8124267 -0.44445887
C -0.6721538 -0.5568767 0.5579027
C -0.6158768 0.75856864 0.7837771
O 0.322778 1.3354428 -0.036684316
H 0.4908215 -1.6999493 -0.8604359
H -1.2786214 -1.3289868 1.0031375
H -1.1487066 1.4091554 1.4582492
