9

O -0.9978506 0.010688828 0.89439094
C 0.8936031 -0.67207146 -0.09913842
N 0.38229766 0.4188624 -0.79621905
C -0.71764123 0.7630016 -0.15711015
C 0.05330107 -0.9173939 0.92748994
O -1.2861632 1.7609459 -0.6998869
H -0.15171936 1.4642686 -1.417773
H 1.8011578 -1.1876341 -0.37627953
H 0.023014903 -1.6406678 1.7245259
