9

O 0.83644682 0.36308474 -0.76468226
C 0.53276092 -0.98825666 -0.75010102
N -0.75419154 0.04240037 0.76712055
C 0.02479366 0.87269992 0.16171649
C -0.42442468 -1.17757755 0.17315446
O 0.12483520 2.18612512 0.34428989
H 1.08239190 -1.61290001 -1.43498623
H -0.90896841 -2.09754715 0.46625474
H -0.51364391 2.41197126 1.03723324
