14

C -0.41381872 2.1422484 -1.0287087
N -1.1859186 0.20460644 -0.96300286
C 1.0490792 -1.5700291 1.3370353
O 0.612264 0.8390864 0.08159127
N 0.049334142 -1.3657205 0.30844477
C -0.18664558 -0.10761677 -0.18993334
H -0.88745487 2.1335163 -2.00388
H 1.3431664 -2.6225324 1.3561933
H 1.9222159 -0.9617241 1.090861
H 0.6992974 -1.2787509 2.3365934
H -1.8077984 -0.51052517 -1.3280143
H -1.0417006 2.524862 -0.23655784
H 0.5826485 2.5693786 -1.0631874
H -0.7346688 -1.9967986 0.30256522
