11

O -0.98735267 1.5923597 0.1461963
C -0.24069035 -0.40602398 0.8085412
C -0.05768914 0.9831374 -0.44738668
N 1.2552383 1.1619885 -0.3087028
C -0.1760813 -1.1377627 -0.5291652
O -0.36976305 -0.04071556 -1.3971895
H 1.3378994 1.9923061 0.2828161
H -1.2158545 -0.30125353 1.2740593
H 0.8099144 -1.596177 -0.65833515
H 0.61689335 -0.36693996 1.4677848
H -0.9725143 -1.8809191 -0.6386182
