11

O 1.0541548 0.21687944 -0.34045628
C 0.17908292 -0.551217 -1.0536387
C -0.8605984 -0.093431264 0.89781207
N 0.38913962 -1.1165599 -2.1560032
C 0.34027836 0.83126485 0.7308296
O -1.0058745 -0.65181714 -0.4027919
H -0.66745436 -0.8938155 1.6214573
H -1.7833263 0.42630586 1.1609725
H 0.9914814 0.8759112 1.6055133
H 0.0443549 1.8439579 0.43461016
H 1.3187616 -0.88747853 -2.4983046
