11

C -0.24767242 -1.8651861 0.8992486
C -0.031709816 0.34718192 1.1127529
C -0.029883204 0.05071437 -0.20338738
C -0.011600076 0.874159 -1.4407841
N -0.21035728 -0.85090274 1.813521
O -0.09712467 -1.3002614 -0.34135127
H 0.8317784 0.5898451 -2.075145
H 0.033315763 1.3053495 1.6076652
H -0.9331404 0.7183432 -2.0081196
H 0.074973516 1.931227 -1.1829866
H 0.6214202 -1.8004698 1.8185862
