11

C -0.52771143 1.10724614 0.55347393
N 1.26750088 0.87798575 2.37859820
C 0.42645308 0.96123635 1.57247250
C 0.06157760 -1.11559063 -0.59118409
N -0.07037636 0.37195632 -0.67016526
H -0.92332433 -1.52533128 -0.36196055
H -1.54060943 0.80028973 0.79383902
H 0.43309372 -1.52132237 -1.53717373
H -0.70821561 0.61617891 -1.42718127
H 0.83183907 0.76705036 -0.93649870
H 0.74977256 -1.33969921 0.22577983
