11

C -0.36158129 -0.51791417 1.61997335
C -0.27203426 0.03906437 -0.89280789
C 0.46877923 -0.13881491 0.42029760
C 1.77165990 -0.07574683 0.35417559
O -1.36050850 -0.46563451 -1.06520582
N 0.37153595 0.79093453 -1.82449860
H 0.25838765 -0.81094947 2.46820391
H -0.99704040 0.32266964 1.91734465
H 1.21178393 1.29758613 -1.61109223
H -1.01474648 -1.34799659 1.33409450
H -0.07623578 0.90680206 -2.72048489
