11

C -0.68726933 -1.0393076 1.2444822
C -0.6715515 0.03303301 0.5623696
C 0.8484761 -0.51260436 0.20214546
C -0.98912746 1.4058143 0.10584678
O 1.7721199 0.15784976 0.59015876
N 0.9292146 -1.449261 -0.78482985
H -0.9203165 1.4911385 -0.9823273
H 1.8555889 -1.7454003 -1.0493985
H 0.1738791 -2.1098285 -0.86967105
H -2.0104933 1.6481386 0.41412064
H -0.3005206 2.1204276 0.5671031
