11

C -1.0414294 -1.129224 0.8145967
C 1.3342617 -1.2203727 -0.019823814
C 0.06864406 0.740686 -0.5650724
C 0.19742262 -0.5975667 0.14004284
O -1.0154877 1.1598492 -0.9088437
N 1.2373987 1.404562 -0.76711243
H -1.2827836 -0.51894855 1.6910276
H 2.1024354 1.0934584 -0.36315593
H -0.9210728 -2.167114 1.127686
H 1.195207 2.2836957 -1.2591084
H -1.8745961 -1.0490257 0.109763525
