10

O 1.4537209 -1.2496542 -1.0451044
C 0.7603178 -0.6973563 -0.061018728
C -0.53790325 -0.16712949 0.36070776
C 0.71467936 -0.28175277 1.1682003
N -0.29888105 1.74177 -1.1151729
N -0.92554176 1.1554542 -0.26044083
H -1.4416139 -0.7532569 0.5581153
H 1.1684308 -0.07912393 2.1217384
H -1.8243879 1.5116425 0.12942399
H 0.9311786 -1.180593 -1.8564489
