10

O 1.87256752 0.68366563 -0.89066017
C 0.62460909 0.15510149 1.24122935
C 1.00834249 0.22660376 0.00291409
C -0.17728170 -0.60172980 0.23210921
N -1.58147591 0.98669693 -0.94449256
N -1.47363644 -0.02995307 -0.29500799
H 0.70593072 0.42200363 2.27965786
H -0.21944731 -1.69513022 0.18845591
H 1.52735818 0.48378635 -1.77212406
H -2.28696663 -0.63104473 -0.04208134
