10

O -0.39954507 -0.7899661 -1.1582785
C 0.70136595 0.037882794 -0.91247493
C 0.08999637 -0.759628 0.1917459
O -1.3408211 0.9996947 0.91028273
C -0.75502175 -0.03447953 1.1713971
O 0.5614078 1.3760922 -1.0229914
H 1.640698 -0.3078822 -1.3449455
H 0.544061 -1.6887125 0.53538454
H -0.25892457 1.6284155 -0.5614975
H -0.78321636 -0.46141687 2.1913776
