10

O -0.12315441 -1.1821808 -1.0833502
C -0.0665029 -0.4803359 0.11420991
C -1.3132735 0.37503177 0.3327588
O -1.4857181 1.0101318 1.3394932
C 1.1441799 0.44149554 0.14652717
O 1.9280425 0.4488983 -0.7719451
H 0.6748123 -0.9296527 -1.5788617
H 0.022924222 -1.150671 0.98514336
H -2.0257463 0.37621307 -0.51697177
H 1.244436 1.0910699 1.0329962
