10

O -0.50233151 -1.24929488 -0.55876400
C 0.23462200 -0.58183298 0.47783198
C -0.49577255 0.48044331 1.21111588
O -1.26442015 1.25494554 0.67242758
C 0.49439448 -0.36017318 -0.97560707
O 0.14397954 0.77023575 -1.62521588
H 1.36963332 -0.83036197 -1.42483797
H 0.87668612 -1.23012915 1.07358861
H -0.59667137 1.17545537 -1.13857211
H -0.26012016 0.57071217 2.28803284
