10

O 1.160592 0.14742324 -0.98255527
C -0.12908287 -0.11881575 -0.6505917
C -0.92557263 1.0823147 -0.10221617
O -0.42216006 1.848993 0.67730796
C 0.32021725 -1.05216 0.41688207
O 1.1350778 -0.5927731 1.2848132
H 1.4539448 0.23459366 0.7770403
H -0.73417914 -0.6388553 -1.413785
H -1.9670409 1.2083049 -0.4619423
H 0.10820386 -2.119025 0.45504674
