10

O -0.6105335 -1.8405836 -0.50316703
C 0.1645776 1.2908181 0.84090203
C -0.13258852 -0.05673675 1.2334983
C -0.06253851 -0.66691923 -0.08138445
N 0.021281753 0.3582343 -1.0602679
N 0.24032259 1.5124974 -0.47318742
H 0.13055071 0.2626499 -2.0585911
H -1.0595529 -2.218545 0.26491562
H 1.0166105 -0.78097975 0.33452708
H 0.29187018 2.1395645 1.5027547
