10

O -1.52301951 -1.16209579 0.46940030
C -0.33981409 -0.44506404 0.50941006
C 1.31373761 0.28836487 -0.76887729
C 0.84012515 -0.91854937 -0.25870150
N 0.52419278 1.37791321 -0.53463778
N -0.50650106 0.97544348 0.11282445
H 0.04142813 -0.37236930 1.54714955
H 2.20398906 0.45079413 -1.36517517
H -1.39924204 -1.84758538 -0.20036179
H -1.15489595 1.65314836 0.48896909
