12

N 0.21970809 0.029090753 -1.6236877
C -0.83202964 0.8180183 -1.1512917
C 0.28685993 -0.23361555 0.5283116
N -0.7694844 0.63385767 0.21987645
C 0.9896232 -0.60220486 -0.6576616
O -1.6165559 1.4849646 -1.7887924
N 0.7749658 -0.29684624 1.8373041
H 0.09760511 -1.399882 0.036191758
H 0.14312859 -0.74358433 2.4902253
H 0.37167296 -0.078190155 -2.6135094
H -1.3476586 1.1359478 0.8727342
H 1.6821648 -0.74755603 1.850299
