12

N -0.38203821 -0.76865109 -0.64988743
C 0.39033036 0.46761663 -0.61581658
C -1.25358728 -0.83736741 0.38305414
N -1.08044212 0.43554020 1.05099310
C -0.17544497 1.25888671 0.56115960
O -2.02577264 -1.69571963 0.73075268
N 1.80641610 0.18291168 -0.47772125
H 0.24173637 1.03382769 -1.54313757
H -0.18535019 -1.56026597 -1.24039088
H -1.63280097 0.62431093 1.87786643
H 1.98049506 -0.20003861 0.44776906
H 2.31645844 1.05894869 -0.52464126
