12

N -0.2707538 -0.013325168 -2.050066
C -0.15856074 -0.03553429 -0.65398055
C -1.0311915 -0.31172642 0.332955
N -0.3542637 -0.10361385 1.5473157
C 0.93328375 0.33482304 1.3317075
O 1.7704839 0.6595676 2.1519005
N 1.0510646 0.31545338 -0.052645963
H 0.29166874 -0.72885853 -2.4967062
H -1.2332982 -0.12505698 -2.3419719
H -2.0457628 -0.6747247 0.2929371
H -0.7654296 -0.08839636 2.4635878
H 1.8127593 0.7713921 -0.52503294
