9

N -1.5966122 0.76104385 -0.8173488
C 0.63192326 1.383157 -0.33027062
O 0.031828187 -0.9045348 -0.745367
C -0.4111015 0.40527713 -0.60319847
O 0.54329824 -0.82926875 1.332227
C 0.58608437 -1.6053057 0.25781897
N 1.4601114 2.164966 -0.1401599
H -2.1783593 -0.053313076 -1.019498
H 0.9328277 -1.322022 2.0657969
