9

N 0.544584 0.4822312 1.8250643
C 0.4333356 0.28337985 -1.5072271
O -0.7633965 0.72428966 -1.4308299
C 0.23921609 -0.16229056 0.7912281
O 1.0088706 -0.15325356 -0.37968203
C -0.8857717 -1.0816995 0.7786327
N -1.7644155 -1.8307405 0.7667893
H 1.3704734 1.0597782 1.6602123
H -0.182896 0.67830545 -2.5041876
