10

N 0.4374136 -0.4488668 0.7478975
C 1.0353738 0.5042041 -0.21661408
C -0.83248234 -0.593323 0.4117066
C -1.1511674 0.1898751 -0.71342385
C -0.04561298 0.91022515 -1.1729534
H -1.476765 -1.2529044 0.9871576
H 0.8837818 -0.9117354 1.5238034
H 1.4311149 1.3731694 0.3205515
H 1.8663298 0.022360729 -0.7435935
H -2.1479862 0.2069951 -1.1445316
