11

N 0.9491447 1.1446065 1.1221354
C 0.118809305 0.32488286 0.35775426
C -1.2038623 0.12763424 0.31332898
O -1.5103413 -0.7290286 -0.7366592
C -0.34748808 -1.0892402 -1.360189
O -0.27528825 -1.8081222 -2.320443
N 0.6628537 -0.46566215 -0.6592041
H 1.6147751 0.6195011 1.6788992
H 0.4209324 1.7603577 1.724974
H -2.0259192 0.49619573 0.9050888
H 1.596384 -0.38112497 -1.0256853
