11

N 0.5104067 -0.05154046 1.3837159
C -0.19896057 0.24312232 0.12665448
C -0.024448967 1.3688763 0.97801006
O -1.4137714 -0.4693802 -0.11237331
C -0.91152686 -0.8310679 -1.3436251
O -1.4296051 -1.4029111 -2.2438722
N 0.35855085 -0.27987066 -1.1060268
H 0.0007000508 -0.49712563 2.1351104
H 0.79624 0.3032785 -1.8032469
H 1.4713383 -0.3669728 1.27043
H 0.8410773 1.9835914 0.71522355
