11

N -0.30728862 0.00032435323 -0.989589
C 0.5972626 -0.010995922 1.1030505
C -0.7063235 0.058308885 0.33777022
O 1.6182401 -0.11211026 0.10701214
C 1.0726255 -0.10358274 -1.1302848
O 1.690529 -0.17458248 -2.1527996
N -1.8470248 0.14580894 0.8786331
H 0.75805515 0.89209837 1.6982275
H -0.9101335 0.021408087 -1.7960259
H -2.599536 0.17370449 0.19365093
H 0.63359356 -0.89038163 1.7503554
