11

N -0.8643523 -0.093298286 -0.66505
C 0.30115536 -0.1208458 0.20969282
C -0.6775063 1.2822781 -0.8045552
O -1.1635392 2.1399758 -1.4708354
C 1.6669053 -0.5916503 -0.19106583
O 0.30849412 1.3521775 0.15113047
N 0.06858343 -0.78633904 1.4208218
H -0.87649435 -0.6918556 1.7762616
H -1.0706068 -0.7210877 -1.4268168
H 0.76701933 -0.5901839 2.1272314
H 1.5403414 -1.1791704 -1.1268146
