11

N 0.9485147 1.1439365 1.1227714
C 0.119450144 0.32220915 0.35729852
C -1.2045412 0.12813106 0.31138718
O -1.5116426 -0.72964287 -0.73783857
C -0.34798247 -1.0899199 -1.3599883
O -0.27437672 -1.8042876 -2.322514
N 0.66453004 -0.4692802 -0.6562474
H 1.6146586 0.6209414 1.6805109
H 0.41916427 1.7603772 1.7241232
H -2.0255642 0.49808937 0.9042868
H 1.5977896 -0.38055423 -1.0237896
