12

N -1.89119112 -0.32205482 -1.15407326
C 0.57163511 0.09291692 -1.07255889
C -0.66279927 -0.10500176 -0.52620973
N -0.62156001 -0.01091387 0.85422680
C 0.62882946 0.24557291 1.11937286
O 1.16939509 0.42279404 2.33563289
N 1.41082040 0.32409396 0.03000943
H 0.93551710 0.12116004 -2.08780135
H -1.82351171 -0.89025903 -1.98736716
H -2.56162049 -0.70797965 -0.50405404
H 0.44395725 0.32983784 2.96821270
H 2.40052809 0.49983333 0.02460978
