12

N 1.2368828 0.12597822 0.7918604
C 0.00029212533 0.6358112 0.856227
C 1.4072053 -0.6666402 -0.4166063
N 0.08087462 -0.61169255 -1.023895
C -0.7050235 0.14065668 -0.24576399
O 2.5006318 -0.84737384 -0.9516942
N -2.0772774 0.21244135 -0.46000886
H 0.7058352 -1.6507384 -0.09961464
H -0.36128423 1.1998181 1.706162
H 2.016327 0.3385928 1.396007
H -2.500095 1.0626295 -0.11843178
H -2.304369 0.06051706 -1.4342414
