12

N -0.27111712 -0.010847442 -2.0476806
C -0.1590352 -0.037228867 -0.65279573
C -1.0338031 -0.31149054 0.33315444
N -0.35492235 -0.10102328 1.5474828
C 0.93374413 0.33234662 1.3310833
O 1.7715234 0.6573103 2.1502633
N 1.0523237 0.31321576 -0.053677797
H 0.290572 -0.72600067 -2.4975724
H -1.2332463 -0.117543265 -2.338638
H -2.0490057 -0.6733761 0.29236147
H -0.76280135 -0.09018971 2.464926
H 1.8157678 0.7648271 -0.52890676
