12

N 0.87118155 1.4212891 1.0777725
C 0.37410918 0.3501177 0.37648687
C -0.7135066 0.70988935 -0.5902646
N -1.2723223 -0.19739895 -1.2768966
C 0.26514536 -1.9979228 0.09781005
O 0.8952913 -2.786612 -0.5601204
N 0.8085529 -0.8222559 0.60953104
H -0.97789013 1.7765324 -0.6385869
H 1.6856508 1.2247431 1.6436943
H -2.0160463 0.18620108 -1.8592402
H 0.83907473 2.334612 0.65344536
H -0.75924057 -2.199195 0.46636844
