11

O -0.57090078 2.61359525 -1.09533672
C 1.23929899 -0.49481321 -0.01454069
N 0.28089141 -1.59024561 -0.05147598
C -0.83625880 1.64778882 -0.50214345
C -1.12598838 0.55401137 0.16473532
C -0.06233709 -0.36490301 0.67795783
H 2.14347718 -0.67929213 0.56052264
H 1.38706909 0.09109503 -0.91905656
H -0.08206869 -0.51027472 1.75596209
H -2.17148372 0.34335315 0.36830713
H -0.20169927 -1.61031492 -0.94493153
