11

C -1.2727522 0.0150260795 0.06670753
C 1.0817881 0.95128757 -0.6155317
C 0.77116144 -0.5835477 1.3550975
O 0.7600017 -0.7198024 -1.0664222
C 0.2407525 -0.033015475 0.09992959
N 1.156761 -0.9916346 2.3612392
H -1.6350765 0.71744955 0.82203996
H -1.6008937 0.3455612 -0.9214535
H 1.7419744 -0.24784231 -1.0583917
H -1.6985047 -0.9712696 0.27448538
H 0.45478812 1.5177879 -1.3176999
