11

C 0.13028508 -0.14597732 1.6796137
C -0.070760615 0.1626268 0.35497397
C 0.7794169 0.7156858 -0.7594664
O -0.19038178 0.25415412 -1.7156734
C -1.0521882 -0.28285226 -0.6960119
N 0.34336627 -0.47293314 2.8325613
H -2.0268996 0.22101969 -0.67836654
H 1.7617835 0.2531419 -0.9117728
H 0.6449831 -1.1500869 1.4768704
H -1.2061961 -1.3632736 -0.805544
H 0.88659126 1.8084952 -0.77718437
