11

C -0.5194212 1.1350199 0.47972974
C -0.12811409 -0.23226313 -0.03130398
C 1.259208 -0.71376044 0.027336461
O 0.280301 -1.1812352 0.9403091
C -0.9898585 -0.7752897 -1.0815631
N -1.6803892 -1.1671436 -1.9206637
H -1.5244063 1.110385 0.91068673
H 0.18530524 1.4513708 1.253826
H -0.5091516 1.8685297 -0.332816
H 1.6122162 -1.4446778 -0.6948558
H 2.0143106 -0.05093553 0.4493146
