9

N 0.61674577 0.8602498 -0.596779
C -0.7419851 0.49020287 -0.33495566
N -0.03275864 -0.99470085 0.8607133
C 0.27465364 -0.5522149 -0.5073189
O -0.9446084 0.1264756 1.0279552
H 1.1025516 1.2487364 0.212428
H 0.74696755 -0.8262085 1.5029747
H 0.5605267 -1.2483616 -1.2819631
H -1.5820929 0.8958211 -0.8830547
