11

O -1.0485647 0.06890299 -0.99416125
C 0.106170654 0.6094737 -0.35947266
C -1.203859 0.7041456 0.27777568
C 1.1075745 -0.44031736 0.071628496
O 0.4564621 -1.6070284 0.5133044
H 0.51745766 1.490002 -0.8539178
H -1.4427863 0.027311383 1.0948181
H 1.7869343 -0.64967257 -0.7697222
H -0.23907723 -1.7870929 -0.13585725
H 1.7097845 -0.061828375 0.903589
H -1.7500966 1.646104 0.25201535
