11

O -2.2971482 -0.62097985 -0.4268569
C -1.1540542 -0.37354976 -0.16168302
C 0.11279873 -1.2133497 0.04092123
N 0.7553597 -0.05101021 0.7301498
C 0.8601292 0.9813642 -0.28367466
C -0.44118515 0.8122369 0.4122163
H -0.06330886 -2.0411565 0.7344909
H 0.6573917 -1.5753951 -0.83652866
H 0.96063 0.69751674 -1.3297695
H 1.4567267 1.8360732 0.022960866
H -0.8473398 1.5482504 1.0977738
