11

O 1.0851088 -0.28806856 -1.923977
C 0.42530668 -0.14213084 -0.7926514
C -0.17926192 -1.1449867 -0.04611291
N 0.21724725 -0.043076504 1.2023327
C -1.1118361 -0.4544079 0.94864076
C 0.56526977 0.9730168 0.18172078
H -0.16566315 1.7848526 0.09646628
H -1.5197074 -1.1143565 1.7075702
H 1.5828732 1.3510107 0.29721394
H 0.93100935 -1.196326 -2.2270072
H -1.8303465 0.27447304 0.5558035
