10

O 0.21512793 2.2115865 0.3934636
C 0.11950892 0.88276184 0.16211154
C -1.002254 0.1946713 -0.21373399
N -0.57102364 -1.1179247 -0.31083444
C 0.74343413 -1.14006 0.0015882105
N 1.1950129 0.05929047 0.29407704
H 1.1309752 2.3767166 0.65095896
H -2.019481 0.49030128 -0.41099373
H -1.1383132 -1.9074214 -0.5689701
H 1.3270125 -2.0499218 0.0023329328
