10

O 0.14392683 -1.9458946 0.87034005
C -0.37706488 -0.52647936 -1.0461068
C -0.38550675 0.7892841 -1.3684336
N 0.09191453 1.3543851 -0.019807903
C 0.05305694 -0.7285175 0.32829005
N 0.3432622 0.34520444 0.9873999
H -0.64486784 -1.3480778 -1.6991757
H 0.44269708 -1.8444005 1.7855221
H 0.94452304 1.8979561 -0.16758083
H -0.61194104 2.0065398 0.32955262
