10

N 0.8031252 -0.1597228 1.6794202
C -0.38071042 0.14135823 1.3659974
O -0.79220563 0.21142495 0.08845976
C 0.21527834 -0.08550434 -0.8709242
C -0.3851042 0.038582608 -2.2035038
N -0.8128548 0.12475212 -3.2738543
H 0.92026126 -0.15975514 2.6893642
H -1.221152 0.38071087 2.024483
H 0.59744513 -1.1004268 -0.72521496
H 1.0559171 0.60858023 -0.7742279
