10

N 1.5950037 1.0828263 2.7903223
C 0.9996472 0.61139625 1.9207447
O 0.53310126 0.67368925 -0.3706324
C 0.2231956 -0.0212031 0.84762555
C -0.19929378 0.44254395 -1.4517697
N -1.0714306 -0.5775498 -1.3083265
H -0.84692246 0.042670384 1.0698743
H -0.04941673 -0.6083388 -2.1237636
H 0.49301553 -1.079105 0.76400834
H -1.6768996 -0.5669296 -2.1380832
