14

C 0.8624546 1.2680507 -0.793536
N 0.18344945 -0.4447792 1.9494482
C 0.5850116 -1.2940835 1.1051515
O 0.19519074 -1.3054899 -0.18293056
N -0.46242076 0.7151708 -1.0192889
C -0.8822612 -0.48788667 -0.52457327
N -2.040317 -0.9929886 -0.4513148
H 1.032812 1.4981569 0.26301765
H 0.95285183 2.1830192 -1.3851556
H 0.60336304 -0.6311034 2.8564513
H -2.7485807 -0.3414717 -0.7806881
H -1.2059748 1.3799244 -1.1706601
H 1.2992522 -2.1094089 1.2663065
H 1.625169 0.56289023 -1.1322281
