11

C -0.8809471 -0.7995862 -1.1893607
C -0.12664852 -0.06341002 -0.14201337
C -0.2619737 1.1344017 0.46754482
N 0.76082975 1.3039482 1.3969018
C 1.4473588 0.22004351 1.2992518
O 0.98438776 -0.664188 0.39234078
H -1.2569209 -1.7553788 -0.81008464
H -1.734494 -0.1979477 -1.5138471
H -0.2515444 -1.0049264 -2.0604978
H -1.0171261 1.891585 0.31424373
H 2.3370788 -0.06454109 1.845521
