9

O -1.121038 0.36406928 -1.0491325
C 0.07300221 -0.0930318 -0.5137095
C 0.48787564 0.7428083 0.70063424
O -0.22550298 1.6317118 1.0903893
C -0.0039984994 -1.506203 -0.06309774
N -0.05102945 -2.5939784 0.3198129
H -1.4786834 0.9996531 -0.40457967
H 0.8742397 -0.029358076 -1.2643374
H 1.4451348 0.48432893 1.1840205
