9

O -0.37636733 0.31439636 -1.50028714
C -0.49958560 -0.04911877 -0.16919122
C 0.46790973 0.74528346 0.71256403
O 1.24864376 1.51193111 0.20990400
C -0.20983871 -1.48688674 0.05970368
N 0.04550898 -2.59358167 0.26276167
H -1.52303981 0.14197807 0.18380294
H 0.43491450 0.84890474 -1.55945668
H 0.41185451 0.56709357 1.80019884
