10

O -0.3444715 -1.0265669 -1.3536702
C 0.079253994 -0.3816542 0.9250973
C -0.2671191 -0.15585987 -0.53350925
O -1.0624245 1.1160209 -0.72681355
C 0.116212934 1.5259167 -1.005306
O 0.96617 -1.4519715 1.0370537
H 0.12810382 2.5226576 -1.4808573
H 0.72970194 -2.0722628 0.33137465
H 0.53627557 0.5024217 1.3748649
H -0.8817032 -0.578702 1.4317658
