10

O 1.27062513 -1.66064024 0.47541875
C 0.15370228 -0.82341897 0.39415023
C 0.49083129 0.44637813 -0.35067280
O 1.58239555 0.74331945 -0.73112673
C -1.74528536 1.04194518 -0.15884456
O -0.54929470 1.36795152 -0.61561930
H -0.22887175 -0.54813434 1.38901342
H 2.04487757 -1.14230033 0.21385906
H -0.66952741 -1.33645887 -0.12086258
H -2.34945259 1.91135864 -0.49531551
