9

N -0.69377255 -1.7308626 0.72018343
C -0.038597934 -0.7612704 0.26750004
O -0.46291453 -0.0076614516 -0.81431395
C -0.31117275 1.3507115 -0.7850734
O 0.06526167 1.9813043 0.15473667
C 1.2864138 -0.46563762 0.78903544
N 2.3516085 -0.28559446 1.1962882
H -1.5864441 -1.8254476 0.2359578
H -0.61038196 1.7444587 -1.7643143
