9

N 1.6360898 1.7600353 -0.3915447
C 0.55359024 0.50014746 0.32378447
O -1.0144264 -1.7815475 -0.016942622
C 0.87549 2.0988398 0.4651385
O -0.5218275 0.3894425 -0.5362359
C -1.2278681 -0.7684014 -0.6158525
N 1.1145034 -0.34629515 1.0406398
H 0.62984794 -1.2396872 1.0619929
H -2.0453994 -0.61253375 -1.3309797
