11

N 0.885295 -0.20988385 1.7647215
C -0.6625807 -0.9168764 0.5307198
C 0.66685224 -0.479906 0.51086915
C 0.27259246 0.3502723 -1.3087275
C -0.79496795 0.28428742 -0.22313276
O 1.3505803 -0.38420844 -0.6669221
H -1.5593554 1.0501777 -0.10763496
H 0.4845358 0.65898 2.1010573
H -1.2359368 -1.5894943 1.1448855
H 0.59573597 1.3793635 -1.5009698
H -0.0027510193 -0.14271224 -2.2448661
