11

N 0.51780187 -0.31990208 -1.40433264
C 0.38375090 0.64032623 0.83149347
C -0.29638816 -0.75257685 0.84095653
C -0.66708870 -0.65207263 -0.61931751
C -0.07384594 0.73427305 -0.62721074
O -0.58742894 -1.51716704 1.71676637
H 1.46186698 0.69830125 1.00385113
H -0.13093314 1.30966930 1.52744032
H -1.52899928 -1.07157010 -1.12491964
H -0.46295186 1.60878089 -1.13535127
H 1.38421627 -0.67806224 -1.00937605
