11

N 0.1491875 -0.30893004 -1.4916137
C -0.18095244 -0.7545383 0.8714092
C 0.62994325 0.5594067 0.7340978
C -0.1312703 0.76519436 -0.579007
C -0.85768235 -0.5511708 -0.4629815
O -0.35020888 -1.5231209 1.775278
H -1.8524799 -0.85612893 -0.76609844
H 0.36294538 1.2467976 1.5424713
H 1.7187597 0.49759665 0.6562466
H 1.0370381 -0.7722001 -1.3126012
H -0.52528 1.6970937 -0.96720046
