12

C 0.81539720 -1.10842149 -1.27380929
C -0.12835404 0.73389398 0.13097575
O 1.41454548 -1.45344309 -2.26633700
N 0.54627694 0.20166370 -0.97517602
C -0.64703953 -0.25141071 1.15223971
N -0.23438194 2.00060511 0.15808580
H -1.36138708 -0.95260843 0.70753342
H 0.87985001 0.88895948 -1.64208827
H 0.43693945 -1.82717810 -0.52778049
H -0.73440531 2.30708284 0.98794493
H -1.15508200 0.29389509 1.95167582
H 0.16764079 -0.83303843 1.59673537
