10

O 0.85388252 -0.53882264 1.74968839
C 0.54287910 0.85637358 -0.32656864
C 0.33479575 -0.09870790 0.59086557
C -0.71918088 -0.73780810 -0.26958244
N -0.38006037 0.30442523 -1.29410093
H -1.17687983 0.91477140 -1.47186211
H 1.60747555 0.01358036 1.99385940
H -1.74815671 -0.66855663 0.09689227
H -0.50920607 -1.75565398 -0.60972764
H 1.19445089 1.71039866 -0.45946375
