10

O 2.005439 1.1516471 0.43286726
C 0.9603813 0.60259837 0.20413007
C 0.4341775 -0.8478533 0.23278278
C -0.9143329 -0.24424013 -0.23499082
N -0.26613086 1.0631093 -0.19797148
H 0.92323285 -1.5154356 -0.4789593
H 0.42868254 -1.2994093 1.2260733
H -1.2352834 -0.55222493 -1.2344295
H -1.743596 -0.35044172 0.47029388
H -0.59257007 1.9922502 -0.41979608
