10

O -1.3353211 -0.12001993 1.7894423
C 0.16083363 0.9631544 -0.17579938
C -0.586015 0.042578276 0.76820153
C 0.5939203 -0.3959134 -0.81081873
N -0.22592174 -1.0858755 0.225975
H -0.99682677 -1.3600804 1.2820092
H 0.23896796 -0.5675615 -1.8309821
H -0.47086233 1.5982202 -0.79945445
H 0.95957375 1.5450544 0.28912956
H 1.6616513 -0.6195567 -0.73770285
