11

N -0.70543647 -1.6730311 0.20316029
C -0.6209238 -0.34898743 0.23426737
O 2.1138954 1.7092845 -0.80269027
C 1.2794456 1.1305108 -0.14314066
C 0.036712438 0.56714654 -0.6762318
O -1.2084099 0.3391761 1.147396
H 0.024467867 0.37487003 -1.7491684
H -1.2854596 -2.157615 0.87113583
H -0.88847256 1.2202207 0.37794048
H 1.3862169 1.0469669 0.96471816
H -0.13203578 -2.2085419 -0.42738706
