11

N -0.6734028 1.5694575 0.87570584
C 0.027565703 0.51601714 0.3706824
O 1.3012618 0.5815828 0.7772229
C 0.22447161 -1.6099157 -0.86439675
C -0.51681626 -0.4668926 -0.4014749
O -0.209547 -2.511519 -1.5515499
H 1.8000705 -0.17449746 0.43991417
H -1.5624474 1.768584 0.44483286
H -0.12927371 2.3793323 1.1379553
H -1.564477 -0.39492205 -0.675151
H 1.3025944 -1.657227 -0.55374086
