11

C -0.48744202 1.4330019 0.36452505
C 1.0962973 -1.6912984 -0.102548145
C 0.08888292 -0.58462596 -0.25100628
C -1.4120722 2.061315 -0.33014145
N 0.37702608 0.52806693 0.5946706
O -0.8542543 -0.61934566 -1.0065378
H 2.082966 -1.3152813 -0.3911576
H 0.81424034 -2.5379262 -0.7300534
H 1.1577415 -1.9931372 0.94722676
H -0.44839418 2.5067437 0.83529615
H -2.4149916 2.2124872 0.06972608
