10

O -0.87511784 -2.00740101 1.41711657
C 1.24022521 0.87256125 -0.59494498
N 1.81839712 1.69214930 -1.30535774
C 0.61737098 -0.07997468 0.05632518
C -1.42337987 -1.21372544 0.68841608
N -0.77647980 -0.22478902 -0.00580599
H 2.06856490 2.56536732 -0.84714593
H -2.51450546 -1.20674615 0.51418634
H -1.29619178 0.39565623 -0.60739526
H 1.14111662 -0.79309769 0.68460562
