10

O 1.6669618 -0.13152064 -1.4457374
C 1.1618578 0.78633165 -0.84295285
N 0.2750795 0.64707613 0.18802634
C -0.21411553 -0.6576171 0.57399106
C -1.6492696 -0.8127547 0.28483245
N -2.7789652 -0.91210157 0.07622939
H 1.38541 1.8478003 -1.0551983
H -0.15595175 1.4687374 0.5809933
H 0.35691077 -1.3926611 0.0007105973
H -0.0479177 -0.84329027 1.6391053
