10

O -2.3763554 -0.3156126 1.0281212
C -1.9818143 0.21271598 0.014847889
N 2.7536983 -0.36422297 -0.3979741
C 1.5981557 -0.3147356 0.017917624
C 0.3387828 -0.36268353 0.38000298
N -0.66887194 0.25417045 -0.3761548
H 3.3864934 0.33063397 -0.008364188
H 0.012706666 -0.8661014 1.2843453
H -0.41165453 0.7015966 -1.2425332
H -2.6511407 0.7242392 -0.7002087
