12

O 0.87672335 1.9593792 -1.2818966
N 1.0110058 1.4117755 -0.0052359113
C 0.31186798 0.36533606 0.10396772
C 0.13366425 -0.6068664 1.2432106
N -0.5627546 -1.5125749 0.29559043
C -0.5872697 -0.477689 -0.7701388
H 1.4664998 2.7219791 -1.2435256
H -0.4890968 -0.2152742 2.057984
H 1.0505598 -1.0274414 1.666515
H -1.4821771 -1.7958689 0.61141837
H -1.5655715 -0.01585703 -0.9545419
H -0.16345114 -0.8068983 -1.7233474
