11

O 1.3806504 -0.27175444 0.1643786
C 0.12514222 -2.4300413 0.17202836
N -0.19468139 1.3132856 0.13883053
C -0.9226519 0.4821573 -0.68381923
C 0.34251875 -1.2358879 0.09597631
C 1.0035717 0.94135636 0.5212906
H -0.31753585 -3.4049585 0.17089501
H -1.9814858 0.71796143 -0.72910213
H -0.44321397 0.2547761 -1.6304448
H -0.6193812 2.1146817 0.59080654
H 1.6270671 1.5184238 1.1891605
