11

O 0.66865623 0.22654743 -1.2125908
C -0.5903084 0.19092803 -1.5680209
N 0.7998131 -0.36014724 1.0190222
C 1.088328 -0.692571 -0.25027934
C -0.030721396 0.5403361 1.515444
C -1.7369488 0.21987344 -1.9232559
H -0.54807156 1.2170271 0.8509782
H -0.19203234 0.5426794 2.583367
H 2.0271611 -1.18179 -0.46389344
H -2.7529888 0.25137863 -2.2454176
H 1.2671129 -0.9542619 1.6946467
