11

C -0.8401105 -0.1409845 -0.710813
C 0.40308708 -0.9271234 -0.29207432
O 0.6628963 -0.42961472 1.0085562
C 0.35201848 0.9348866 0.9207724
O -0.736063 1.0675799 0.029487176
H -1.7646102 -0.6600537 -0.43205985
H -0.86312747 0.07816876 -1.7844175
H 0.24995597 -2.0067196 -0.23028965
H 1.2520702 -0.71624315 -0.9590787
H 0.06931318 1.2984811 1.9130694
H 1.2145698 1.5016233 0.5368478
