10

O 1.7558491 0.70447713 -0.6012754
C 0.081099644 -1.1452311 -0.5544992
C 0.4332353 0.29376787 -0.5351529
C -0.97248137 -1.1518663 0.3674511
N -1.1781918 0.014041516 1.0373756
N -0.29556355 0.85415363 0.6350914
H -0.37844783 1.8235404 0.91009533
H -0.14394677 0.69146836 -1.3963121
H -1.5952744 -1.9921511 0.65269285
H 2.2937217 -0.09220028 -0.51546645
