10

O 1.71570773 -0.39474660 -0.91725037
C -1.24518155 -0.40519113 0.83239379
C -0.50228589 -1.16945533 -0.07539230
C 0.38725655 -0.12188735 -0.62893310
N 0.21287704 1.04906931 0.27278968
N -0.82085954 0.87459955 1.01279141
H -0.15601147 0.19168329 -1.54513903
H 1.89775954 -1.27273454 -0.56037599
H 0.58328769 1.98281153 0.15820751
H -2.07255031 -0.73414879 1.45090844
