12

N 0.17048190 -0.46780421 1.10392388
C -1.11742997 -0.02067780 0.91477870
C 0.15651001 1.14797584 -0.52618614
N -1.10156804 0.90882930 -0.00585429
C 1.10307852 -1.13316068 -1.07349915
N 1.14635762 -1.97543395 -1.86523692
C 0.98210123 -0.03613333 -0.05713241
H -1.95422154 -0.26087310 1.55196351
H 0.30480185 -1.40585779 1.45057820
H -1.91330771 1.46472262 -0.22824805
H 0.22746182 1.54735799 -1.52634448
H 1.99573442 0.23105496 0.26125749
