10

N -1.3110688 0.888086 1.0002779
C 1.3474009 -0.8484706 -1.1647431
N -1.0767267 1.3479084 -0.43445987
O 1.2491387 -0.23063506 -2.2071345
C 0.5619575 -0.6077632 0.028288633
C -0.3698975 0.3762893 0.02316938
H -1.002754 1.5294927 1.7227216
H 0.70625794 -1.1928115 0.92754215
H -2.190339 0.41112545 1.1662809
H 2.086031 -1.6732216 -1.061943
