10

N -0.32145405 -1.0023556 -1.5091567
C -0.0773752 -0.4421737 -0.2670907
N -0.034265842 -1.1739337 0.81597733
O 0.31489143 -0.30470848 1.8411983
C 0.4536502 0.9231119 1.3364618
C 0.2233231 0.9303089 0.0037897655
H -0.8820203 -0.42748109 -2.1206155
H -0.67178464 -1.9486246 -1.4520807
H 0.72446 1.6931031 2.0433173
H 0.27057534 1.7527533 -0.69180137
