9

O 1.17772488 -0.80261857 1.09282763
C 0.05420130 -0.99769889 -1.04259495
N 0.90917662 -0.08311527 -1.25200810
N -1.31647437 1.20011234 -0.09852917
N -0.39149536 0.84369229 0.65396487
C 0.38386423 -0.24909597 0.12398806
H -0.43508087 -1.79700452 -1.57561507
H -1.77717278 1.99363049 0.36961539
H 1.39525639 -0.10790198 1.72835115
