11

N 0.53072987 1.01379458 -0.22714476
C -1.62598696 0.52548108 -0.33129074
C 1.30260998 -1.16990083 0.47531532
C -0.66536803 1.53079574 -0.48888671
N 0.26587940 -0.24790242 0.06213574
N -1.00780066 -0.59704445 0.02532332
H 1.09511965 -2.14780308 0.04084630
H -0.77705359 2.56638318 -0.77396531
H 2.25230133 -0.78190202 0.10990368
H 1.32773752 -1.24800133 1.56556111
H -2.69816874 0.55609944 -0.45779730
