11

C -0.52499944 1.0414534 0.5434735
C -0.07551413 -0.04765832 -0.43070614
N 1.3782182 -0.14373668 -0.44858763
C -0.7202238 -1.3478671 -0.10344335
N -1.1612959 -2.3816836 0.16363327
H -1.6127485 1.1588657 0.5300664
H -0.22157997 0.7939196 1.5671542
H -0.05682259 1.9866095 0.25961855
H -0.40234002 0.2249637 -1.4400784
H 1.6820769 -0.8544916 -1.1063762
H 1.7152294 -0.4303748 0.46524593
