11

C 0.39915955 0.79267993 0.14293287
C 0.31606744 -0.67090442 0.20568031
N 0.99268157 1.76338976 -0.38994242
C -0.74220901 0.21869719 0.88168780
N -0.05181519 -1.47561498 -0.93209543
H -1.72805758 0.27358012 0.42232480
H -0.75307497 0.24256286 1.96903111
H 0.51865050 2.64350179 -0.17374060
H -0.70061888 -0.96142353 -1.51944628
H 0.77359421 -1.63500365 -1.50337913
H 0.97562219 -1.19146491 0.89694711
