11

C -0.40717623 0.7652141 0.8362976
C 0.5708515 -1.046372 -0.6844268
O 1.5933971 -0.33960754 -0.012038752
C -0.13875504 -0.23377533 -1.712774
C 0.3552455 -0.45720488 0.69125885
N -0.7319347 0.7627492 -1.353019
H 0.35025534 -1.1988112 1.4918597
H -1.3700775 0.65985745 1.3414701
H 0.16006076 1.6507714 1.1160423
H -1.1486136 1.5372852 -0.85399777
H 0.76674676 -2.1001065 -0.8606721
