11

C 0.6327514 0.52702904 -0.54547215
C 0.94896257 0.3424811 0.8861995
O 1.6082921 -0.41531396 -0.14088698
C -0.13563694 -0.45970473 1.560701
C -0.7098997 -0.1179895 -0.7737916
N -0.98376435 -0.66743803 0.57598627
H -0.6707843 -0.9204467 -1.5160208
H -1.4790446 0.6066781 -1.0607266
H 1.5979277 1.0100565 1.4454095
H 0.9781303 1.3649712 -1.1447203
H -1.7869343 -1.270323 0.71332216
