11

C -0.67923632 0.51744230 -0.62251426
C 0.74575834 0.63110452 -0.14568958
O 1.50954839 -0.50957403 -0.49044506
C 0.94947544 -0.45852604 0.83151856
C -0.29698451 -1.30063014 0.94110298
N -1.11769341 -0.69565049 0.10889336
H -1.28642511 1.38284141 -0.33709376
H -0.75067500 0.36304511 -1.70299091
H -2.02394855 -1.09989021 -0.09775916
H 1.26932422 1.58276135 -0.11812061
H 1.68085673 -0.41292361 1.63309845
