11

N 1.0383612 0.13194782 1.7693768
C 0.37239444 0.05990555 0.54036844
C -0.97134167 0.12604335 0.27113372
N -1.0535578 0.06403872 -1.1126987
C 0.20980468 -0.0230477 -1.5859991
N 1.0961076 -0.034710445 -0.6214176
H 2.0078235 -0.12951753 1.6496663
H 0.6124093 -0.4272935 2.495711
H -1.8438426 0.22263297 0.89689827
H -1.8981935 0.088081904 -1.6579068
H 0.4300349 -0.0780811 -2.6451323
