9

O 0.51448166 -2.1245186 0.48864856
C 0.39964873 -0.9504693 0.2980611
N -0.8067552 -0.3113532 -0.3426396
C 0.6071066 1.2813619 0.13845778
C -0.59837264 1.2118344 -0.41792497
O 1.2196888 0.02796888 0.56923014
H -1.6471045 -0.5428459 0.19195178
H -0.9497171 -0.7070362 -1.2746898
H 1.2610236 2.115058 0.3489049
