9

O 0.06098998 -1.85141492 -1.25920257
C -0.07985636 1.31635171 0.51195199
N -0.11174491 0.48718460 -0.78444944
C 0.08672623 0.32670248 1.38397302
C 0.05058680 -0.97394898 -0.44812475
O 0.16721336 -1.03006247 0.85056273
H -0.98707751 0.63103990 -1.29303793
H 0.17960205 0.31721652 2.46018337
H 0.63356021 0.77693123 -1.42185659
