9

O 0.17937407 -1.13837728 -1.08031351
C 0.23604874 0.96140056 -0.30089259
N -0.22568108 0.06693360 0.72853515
C -0.27062107 -1.20693094 0.28954725
C 0.48972920 0.06495478 -1.49511957
O -0.58395560 -2.23762319 0.79616517
H -0.50518282 1.72070699 -0.57502459
H -0.48691322 0.29401194 1.67207195
H 1.16720205 1.47492341 -0.03496905
