12

O -1.2629389 -0.6578867 1.2369654
C 0.12552887 -0.48665932 1.1827123
C 0.585446 0.70306826 0.34353653
O 0.85680884 0.4050394 -1.0457948
C -0.14800753 0.026725894 -1.8274273
O -1.2871284 -0.18682498 -1.4864604
H -1.5847524 -0.63254976 0.32041842
H 0.6560923 -1.3866546 0.8283637
H 0.45602137 -0.30158174 2.211046
H 1.5517367 1.0718111 0.6961468
H -0.15927278 1.5028306 0.40032047
H 0.21046555 -0.057318278 -2.8598273
