12

O -0.74107427 -0.26296930 1.10490113
C -1.59891656 -0.79551373 0.23926436
C 0.17474660 0.76901465 0.67156867
O 1.47771371 -0.90425940 -0.51944619
C 1.03106384 0.42576300 -0.54074703
O -1.56504946 -0.69871281 -0.96048538
H -2.34750230 -1.38627434 0.78737473
H 0.76749677 -1.46345344 -0.86153299
H 0.80354870 0.90638030 1.55261159
H 1.91810685 1.06575859 -0.50691196
H -0.39697943 1.68765085 0.49207713
H 0.47684518 0.65661551 -1.45867423
