10

O -0.04240410 0.06282955 -1.29970770
C 1.23007974 0.39722288 -0.91018489
N 1.58456788 0.49111409 0.28857693
C -0.94226368 -0.23008504 -0.36239577
C -1.34767509 -0.45869361 0.98060479
N -2.15340001 -0.54427814 -0.33897007
H 1.81700696 0.55380982 -1.81822257
H -1.59279021 0.37237809 1.63894156
H 2.56552017 0.75656468 0.34398695
H -1.11864144 -1.40086248 1.47737051
