10

O -0.18893096 0.17556237 -1.2761147
C -1.2260497 -0.5634238 1.0805414
N -2.1748493 -0.54573673 -0.14308503
C 1.1174785 0.49422345 -1.0031468
C -0.97581553 -0.21203844 -0.27377835
N 1.604263 0.48840684 0.15206501
H 2.583734 0.76310873 0.120806135
H -1.3999974 0.20302229 1.8331844
H 1.5974782 0.73864436 -1.9536173
H -0.93731153 -1.5417691 1.463145
