10

O -1.2080454 0.4704402 0.74374074
C 1.0743641 -0.45583597 0.34468788
N -0.13007073 0.13093454 -1.2343667
C -1.158445 0.5085866 -0.5688134
C 0.07033968 -0.08984726 1.2736026
N 0.5070316 -0.3331098 2.3773167
H 1.2225999 -1.5070721 0.11984177
H -0.22287877 0.17980666 -2.2433982
H -2.0790644 0.89163125 -1.0164967
H 1.9241688 0.20446582 0.20388535
