12

C -1.5122321 0.42666894 1.6453841
C 1.550106 -0.5997198 -1.8503716
O 2.5735261 -0.4371387 -2.4701703
N 1.181689 0.15000959 -0.7671436
C 0.0032226974 -0.03144513 -0.04908799
N -0.27106613 0.6909946 0.94469655
H -1.2878184 0.19638754 2.6924696
H -0.62599033 -0.8442592 -0.4369471
H 1.8100744 0.8868187 -0.46966478
H -2.1053057 -0.3968027 1.2210134
H -2.1219795 1.3354865 1.6424457
H 0.805774 -1.3770005 -2.1026237
