12

C 0.55834615 -0.6477262 -1.8481796
C -0.079521626 -0.7408039 -0.47931048
O -0.6044288 -1.7434059 -0.048217487
N 0.006808518 0.42253807 0.26885357
C -0.47556043 0.53979814 1.5640689
N -0.3447366 1.6422116 2.1770043
H 0.13422917 -1.4275004 -2.4807594
H 0.40194306 0.3315826 -2.312254
H 1.6378828 -0.81927913 -1.7601147
H 0.44713554 1.2461456 -0.11878392
H -0.93566674 -0.3780709 1.9301788
H -0.74643105 1.5745105 3.1075132
