17

C -2.4801672 -0.92836255 0.5961874
N -1.3224871 -0.4211359 -0.1188699
C -0.26359203 0.0711785 0.6271296
O -0.35006776 0.22029544 1.8392551
N 0.85603017 0.42078906 -0.09231192
C 2.0677087 0.76072186 0.6250755
C 0.9331607 0.34784192 -1.5383457
H -2.2644193 -1.8347642 1.1777387
H -2.8350613 -0.16470134 1.2928768
H -3.2728035 -1.1420698 -0.1231258
H -1.0866326 -0.9303006 -0.958709
H 2.8576543 0.014012243 0.4596724
H 1.8323238 0.80264515 1.6879352
H 2.446512 1.7377884 0.3016874
H -0.02197145 0.64053434 -1.9851102
H 1.6910349 1.0561993 -1.8886347
H 1.212777 -0.6506717 -1.9024512
