17

C -0.3579992 -1.7442499 1.6660293
N 0.6059839 0.64188004 -1.1072896
C -1.7875222 1.0609032 0.46507618
O 0.8951382 -1.2186761 0.21312968
N -0.81032884 0.02665648 0.6783885
C 0.23261008 -0.17023245 -0.07450368
C 1.8710226 0.4451962 -1.7846828
H -2.6838593 0.8176133 1.0484447
H 0.101135395 -2.7007244 1.4245049
H -1.4402186 -1.8247263 1.7166599
H 1.8593044 0.9786358 -2.7374883
H 0.24951637 1.5817344 -1.07192
H -1.4435362 2.0523841 0.7984828
H -2.099541 1.1375339 -0.58652186
H 2.7312431 0.78876525 -1.1957191
H 1.9954582 -0.6224699 -1.9772367
H 0.08159338 -1.2502239 2.5246458
