17

C 0.013819279 -0.13707314 -0.051560365
N 0.46639562 1.1291721 0.25686288
C -0.3768102 0.35782835 -2.2990222
O 0.06414927 -0.94354707 1.0220095
N -0.38199976 -0.5666951 -1.1848434
C -0.30693218 -2.2968545 0.78089505
C 0.616218 1.5923946 1.6216133
H -1.0630403 1.208788 -2.1535046
H 0.62299323 0.7654441 -2.5141408
H 0.22077763 1.8261231 -0.42358676
H 1.1381686 2.553257 1.6003577
H -0.7127525 -0.17502604 -3.192503
H -0.34058622 1.7194694 2.1435144
H 1.2256894 0.88547087 2.1875217
H 0.35443974 -2.757138 0.04156895
H -1.3362075 -2.3636935 0.41910103
H -0.20432232 -2.7979207 1.7457167
