11

N -0.8532667 1.5814531 0.52841747
C -0.3059032 1.5741242 -0.6718179
N -0.56244296 0.3614946 1.0252492
N 0.58492297 -1.6865896 0.5418346
C 0.14758347 -0.4113281 0.16674396
C 0.33311746 0.34894106 -0.9683813
H 1.1818087 -2.0917773 -0.16676788
H -0.8081082 0.14336616 1.9763881
H 0.84628445 0.05949319 -1.8741597
H -0.1736412 -2.3282037 0.74539274
H -0.3903546 2.449026 -1.3028992
