11

C 0.17786665 0.113876 0.08482253
C -0.65766984 -0.8574397 -0.4525474
C 1.5346605 0.5617363 -0.3549019
N -1.5397422 -0.01473385 1.3749603
N -0.42894483 0.64609605 1.1569728
N -1.7227495 -0.9858599 0.34822336
H -0.5358498 -1.4651226 -1.3383449
H -2.472749 -0.024232108 0.560264
H 1.6870824 0.35907206 -1.4184483
H 1.6517435 1.6320133 -0.17380978
H 2.3063514 0.03459428 0.21280962
