13

C -0.54682213 0.026041996 1.7076529
C 0.02744387 0.16746363 0.33085275
N 1.1377567 0.78787196 0.23586139
O 1.5596114 0.87795925 -1.1038421
C -0.719296 -0.41529238 -0.8587048
O 0.05725004 -1.3122063 -1.6139184
H 0.08447493 0.5298353 2.441534
H -1.5557332 0.45378327 1.7493042
H -0.6328154 -1.033753 1.9720143
H 2.42018 1.3029759 -1.022344
H -1.0977609 0.41791874 -1.4714326
H -1.5859494 -0.981092 -0.49930114
H 0.8516599 -0.82150644 -1.8676767
