13

C -0.68652993 0.99031097 -0.52147615
C 0.12177982 -1.3919009 -0.08038914
N 1.7470624 0.4803855 -0.6563094
O 1.2346803 0.61428344 0.9292142
C 0.49064794 0.06646281 -0.24263571
O -1.8195388 0.7586892 0.2906723
H -0.3202743 2.0246546 -0.46693844
H -0.15526754 -1.7800301 -1.0671023
H -0.9971222 0.80222726 -1.5546498
H 1.7240901 -0.123305336 1.3270596
H -0.72837186 -1.5264763 0.59657234
H 0.98728484 -1.9671019 0.2627318
H -1.5984408 1.051801 1.1832509
