11

O 0.36743551 0.7551576 -2.1728761
C 0.74422336 -0.7377823 0.883516
N -0.8022583 0.49507985 -0.24350742
C 1.3401382 -0.5038997 -0.31527445
C 0.29855582 0.26674446 -0.9470397
C -0.64022464 -0.14458163 1.052056
H -1.6068985 1.0140573 -0.5592145
H -1.4179691 -0.9001706 1.2125834
H -0.6997717 0.5944766 1.85969
H 1.244368 0.463632 -2.4796681
H 1.1724017 -1.3027135 1.7097348
