11

O -0.8254116 0.46486366 -2.1897314
C 0.55640006 1.1182065 -0.55726653
N -0.71143335 -0.80978304 -0.16494557
C 0.87785745 0.6695889 0.67268276
C -0.42373407 0.16339213 -1.0141789
C 0.105526276 -0.5920019 1.0391992
H 0.7576777 -1.4547105 1.2174097
H -1.3595289 -1.5668238 -0.308587
H 1.5842711 1.0921341 1.3801366
H -0.53759944 -0.4569006 1.9166687
H -0.02402485 1.3720348 -1.9913881
