11

C 0.017579688 -0.5469448 -0.71680605
C 0.28177518 0.7181757 -0.022067916
N 0.54797846 -1.5751485 -1.2071737
C -1.1494176 0.16484037 -0.16419742
N 0.89687103 0.7753854 1.2797378
H -1.825094 0.7005089 -0.8264803
H -0.1684675 -2.2699199 -1.4368933
H 0.48966834 1.5972645 -0.6287035
H 1.9058942 0.7228752 1.1728938
H 0.6304658 -0.037055843 1.8270639
H -1.6272538 -0.24998108 0.72262686
