11

C 0.37937394 0.66646000 -0.08698897
C 0.05976639 -0.67055949 -0.60003878
N 0.77112396 0.90046104 1.27979171
C -1.07144761 0.25438024 -0.40321778
N 0.51491939 -1.82383294 -0.80444579
H -1.74356065 0.06779918 0.43362936
H 0.30613076 0.23904216 1.89371740
H 0.80646940 1.38812167 -0.78039889
H -1.54563498 0.72590423 -1.26048637
H -0.24353122 -2.46775547 -1.04711773
H 1.76639088 0.71997926 1.37555604
