11

C -0.634633 -0.10154629 -0.102274
C 0.57868856 -0.8233836 0.5729259
N -1.1373622 1.0760328 0.5437035
C 0.42958102 -0.031466477 -1.0806723
N 1.3900267 0.05391361 -1.8227082
H 0.953553 -0.24586737 1.4210124
H -1.4383837 -0.7833172 -0.37554523
H -1.7552881 1.5928148 -0.0710117
H -0.37472555 1.6858729 0.81564486
H 1.5997772 -0.5492081 -0.69103867
H 0.38876614 -1.8738449 0.78996354
