11

C -0.52458024 1.0415404 0.5431644
C -0.07564513 -0.049037647 -0.4309301
N 1.377034 -0.14418344 -0.44938034
C -0.72116506 -1.3473774 -0.10352619
N -1.1599096 -2.3819263 0.1655915
H -1.6118711 1.1594028 0.5303162
H -0.22008577 0.7955836 1.5666176
H -0.055142447 1.9862773 0.25793266
H -0.4023422 0.22401519 -1.44042
H 1.680306 -0.856925 -1.1040869
H 1.7134018 -0.42736962 0.46472138
