11

N -1.5668693 1.089089 -0.100572966
C 0.06995209 -0.686855 0.031686325
C 1.33377 -0.48932788 -0.6725487
C -2.3467753 1.5584748 -0.8366505
C -0.605448 0.46392208 0.74583906
O 1.2855245 -1.1082047 0.60827094
H 1.5999186 -1.1446408 -1.4991522
H 1.7911519 0.4994987 -0.6884391
H -0.5929076 -1.4909556 -0.28951064
H 0.1438769 1.2007084 1.0511214
H -1.1121942 0.10829061 1.6499562
