9

O -0.92965996 -1.1287881 -1.9738061
C -0.40696734 -0.6192465 -1.0197496
N -0.8973537 0.31928828 -0.14111817
C 0.06310573 0.6266827 0.8209999
C 1.1290932 -0.12280906 0.52835447
O 0.86984324 -0.88899666 -0.5859975
H -1.8229293 0.7015269 -0.22403835
H -0.105681464 1.3411485 1.6110214
H 2.1005497 -0.228806 0.9843341
