9

O -1.44228910 -1.66644262 -1.91474792
C -0.17731840 0.64384853 0.51406040
N -1.18488786 0.06910306 -0.31351503
C -1.22133782 -0.83843608 -1.12010039
C 1.18379542 -0.00559825 0.35726457
O 1.39894057 -0.92315411 -0.38844921
H -0.07166292 1.71619972 0.30140585
H -0.46429039 0.57341529 1.57264750
H 1.97905060 0.43106453 0.99143437
