11

C 0.15488936 -0.66482446 1.50922314
C -0.12020033 -0.17599374 0.15825447
C -0.15456304 1.32970395 0.01768640
C 0.22122797 -1.05502356 -0.96782212
O -1.11948355 -0.90451546 -0.53423776
N 0.38839795 -1.01974582 2.58367030
H 0.66734197 -2.03072941 -0.78046202
H -0.93303853 1.75651566 0.65504022
H 0.80668159 1.76462391 0.30531811
H 0.45753440 -0.59386437 -1.92515876
H -0.36878809 1.59385346 -1.02151147
