11

C -1.050552 -0.99579775 0.058512386
C -0.09982191 0.11222304 0.21887887
C 0.43777597 0.35768676 1.5569679
C 0.7757017 0.5879515 -0.91919255
O -1.4915848 0.3503998 0.09589826
N 0.89544463 0.5524847 2.5998127
H -1.1130137 -1.4813842 -0.91375625
H 0.93621325 1.6670308 -0.85410696
H -1.327769 -1.6035436 0.9186979
H 1.7488 0.08986974 -0.8896481
H 0.2888056 0.36307922 -1.8720641
