11

C 0.5943074 0.7324475 2.2423282
C 0.30535534 0.16311099 0.92871135
C 0.07421427 -0.3167309 -0.15009005
C -0.14420862 -0.96980435 -1.4450983
O 0.33331764 -2.0522065 -1.7156891
N -0.9352118 -0.2622146 -2.2981622
H 0.45798564 -0.020441895 3.0240614
H -0.06466816 1.5785025 2.4612303
H 1.6303436 1.0824888 2.2877793
H -1.0389065 -0.6230418 -3.2354264
H -1.2125291 0.6878904 -2.099644
