11

N -1.52618570 -0.49063618 -0.30914404
C -0.68070708 0.65311350 -0.79156712
C 0.44182309 0.41190761 -0.05020286
N 1.59398365 1.22086886 0.01740181
N -0.86550558 -1.35944975 0.66482618
C 0.27457271 -0.76258376 0.78218669
H -1.81902793 -1.06723141 -1.09813175
H 1.50369320 1.98299025 -0.64346331
H 2.44768269 0.71253555 -0.17311442
H 1.00669896 -1.16746316 1.47388798
H -2.37702804 -0.13405147 0.12732107
