12

C -0.61855125 0.97511184 -0.29036048
N -0.066543706 -1.3732225 -0.053552818
C 1.7020891 0.28952706 0.2838491
N 2.8217678 0.5174683 0.12120478
C 0.27153924 -0.044048432 0.4382559
O -1.959406 0.6255656 -0.113090366
H 0.29998475 -2.0981615 0.55394185
H -0.33313358 0.9982463 -1.3543738
H 0.33009312 -1.5222782 -0.9758382
H -0.46941862 1.9761108 0.12058385
H 0.019612733 -0.010346861 1.5042987
H -1.9980339 -0.33397245 -0.23491846
