11

C -0.7725207 0.8786358 1.5467336
N 0.58363116 0.51549876 1.1773813
C 0.8348905 -0.05269138 0.095035374
O -0.14435706 -0.38546193 -0.8412034
C 0.25311244 -1.0264891 -1.965427
O 1.3779407 -1.3409148 -2.2380145
H -0.7893378 1.952889 1.7485938
H -1.0177885 0.36741984 2.481369
H -1.5354707 0.64167273 0.7960936
H 1.8390298 -0.33581147 -0.20696598
H -0.6291295 -1.2147473 -2.5935962
