13

C 0.77455974 -0.549337 0.55834794
C -0.3949104 0.19532281 -0.16809449
N -0.788079 -0.45744485 -1.2902083
O -1.4355546 -1.48055 -0.8314699
C -0.13076843 1.6800587 -0.28860205
O 0.50572133 -1.8273621 1.0698303
H 1.0471773 0.07782733 1.4101291
H 0.82228076 1.8978574 -0.7908999
H -0.9359242 2.1730719 -0.8413709
H 1.6310842 -0.5649974 -0.13443537
H -0.087182984 2.1247284 0.71214384
H 0.32674333 -2.4212017 0.32506177
H -1.3351473 -0.8479731 0.2695681
