13

C -0.5485766 0.026498495 1.7064849
C 0.028266078 0.16778575 0.32993782
N 1.1406449 0.78501445 0.23299438
O 1.560927 0.87446594 -1.1067822
C -0.7183098 -0.41593903 -0.8554888
O 0.05891234 -1.3115476 -1.6152697
H 0.08265581 0.53216857 2.4392955
H -1.5575473 0.45348522 1.7487491
H -0.63023806 -1.0319673 1.9754783
H 2.41622 1.3100771 -1.0279692
H -1.1050148 0.41315457 -1.4682575
H -1.5807521 -0.98494816 -0.4906338
H 0.85281265 -0.81824803 -1.8685391
