11

N 1.4031701 -1.2387294 -0.44244093
C 0.007975503 0.87121534 -0.55558485
C 0.3260884 -0.45095575 -0.073147856
N -0.5285205 -0.80560493 0.85001343
C -1.1860923 1.3149444 0.13351546
N -1.3580238 0.27009192 0.98349106
H 1.313296 -2.196137 -0.13328578
H -2.069289 0.21124601 1.6933248
H 0.46022752 1.3840909 -1.3952512
H 1.651556 -1.1768332 -1.4181216
H -0.020388102 1.8166717 0.35748744
