11

N 1.0388975 0.13085571 1.7689637
C 0.37040457 0.05992646 0.5418556
C -0.9725392 0.12655479 0.27381843
N -1.0538852 0.06473881 -1.1124
C 0.20920233 -0.023992613 -1.5858978
N 1.0960202 -0.03635079 -0.61861706
H 2.0098896 -0.12441295 1.6444932
H 0.61739033 -0.43345317 2.493193
H -1.847221 0.22680004 0.89605254
H -1.8985672 0.08822109 -1.6583537
H 0.43040797 -0.07888732 -2.6431074
