12

C -1.1192889 -1.013622 -1.700085
N -0.9974574 -0.58791506 -0.32218575
C 0.05706147 0.020714134 0.010194593
N 0.2421946 0.46982723 1.3102295
C 1.3509803 1.1496062 1.7467763
O 1.502746 1.5422587 2.8781884
H -1.9987674 -0.53446686 -2.1440973
H -0.24266599 -0.7852134 -2.3230627
H -1.2965732 -2.092818 -1.7250882
H 0.8949436 0.24638817 -0.6625915
H -0.49241373 0.2841988 1.9836564
H 2.0992408 1.3010421 0.9480655
