11

O -1.0462699 -1.0631924 -1.8018314
C -0.5424574 -1.1422026 -0.71237147
C -0.004219418 0.04907063 0.02627408
C 1.4298451 -0.03404679 0.43839747
O 0.03007677 -0.25655508 1.4261862
C -0.5762196 1.4015754 -0.3222361
O -0.68395287 2.2700598 0.50131375
H 0.85750175 0.41353855 1.6897762
H 1.7993494 -1.0638648 0.31333074
H -0.39364308 -2.1026442 -0.17982379
H -0.87001085 1.5282618 -1.3790157
