11

O 0.85190579 1.04492081 -1.92978581
C -0.11793189 0.69478689 -1.30359893
C 0.00037709 0.09077369 0.05711372
C 1.19763374 -0.76129204 0.35066809
O 1.04406272 -1.78708437 0.97207284
C -0.61416009 0.76355246 1.25621954
O -1.20819117 -0.61045627 0.45436563
H -1.16099205 0.84173203 -1.64206396
H -0.84213306 -1.37536643 0.97369355
H 2.16902407 -0.40444519 -0.01957775
H -1.31959523 1.50287840 0.83089313
