9

O 1.3498964 0.50785357 1.1193136
C 0.5430323 0.0069488618 -2.2626963
C 0.27693948 0.09258341 0.35549343
C 0.39203444 0.052211836 -1.0686991
C -0.86393523 -0.19263701 0.95883965
N -1.8922524 -0.5389568 1.5257223
H 2.0756493 -0.11189949 0.96643686
H -2.5489678 0.21272969 1.7279663
H 0.66760355 -0.02883406 -3.3223767
