9

O -1.3222417 -0.66294974 0.88297105
C -0.5996888 0.29711556 0.15634657
C 0.85985893 0.19453517 0.33920166
C 2.0431125 0.07707965 0.5075145
C -0.9278811 0.23389578 -1.2943987
N -1.2012995 0.15299538 -2.4125621
H -1.0021877 -1.5397129 0.6347227
H -0.9469465 1.265896 0.5294422
H 3.097274 -0.018854689 0.65676254
