11

O 1.2552028 -0.6565946 -2.1057055
C 0.62515134 -0.34768304 -1.1151812
N 1.1413062 0.032722875 0.100904614
C 0.12930515 0.33790725 1.0810803
C -1.1398927 0.09371683 0.30579904
C -0.8627328 -0.29349726 -0.9369665
H 2.1337926 0.08297868 0.26207608
H 0.19084492 1.3758692 1.4313028
H 0.194952 -0.3152565 1.960834
H -2.1194186 0.23216857 0.7496971
H -1.5485108 -0.542332 -1.7338408
