11

O 0.26779043 0.96038227 2.19647596
C 0.71952548 -0.10289382 -1.06965800
N 1.14550675 0.53385200 0.10970910
C 0.17350589 0.49251801 1.08486271
C -1.00277796 -0.25699845 0.45231657
C -0.51661749 -0.58345222 -0.93349374
H 1.38486644 -0.14273808 -1.92198827
H 2.04112883 0.97323252 0.24845507
H -1.23866830 -1.13976900 1.05655477
H -1.89267519 0.38106245 0.46208670
H -1.08158479 -1.11519568 -1.68532093
