10

N -0.4023148 -1.0348458 1.1893196
C 1.1122987 -0.3072418 -0.59616286
O 1.1561805 0.59371877 -1.4701189
C -0.061843872 -0.28578392 0.13020743
C -0.6189939 1.1710716 -0.64951545
N -0.8432209 2.1481292 0.04496585
H -1.0917642 0.946295 -1.6104928
H 1.9243169 -1.0383722 -0.4655349
H -1.3832266 -1.0585766 1.4368162
H 0.20856816 -1.1343945 1.9905161
