13

C 1.2627473 1.030496 1.0009859
N 0.67753386 0.14269489 -0.00081846723
C -1.3737563 -0.41674465 -0.88533133
O -0.70261115 -1.1323605 -1.9177659
C -0.7225774 -0.4206426 0.3965087
O -1.0708075 -0.38574016 1.5479842
H -2.4599476 -0.5309139 -0.87954324
H 2.277749 1.3047475 0.7025477
H 1.3018763 -0.57590795 -0.35223874
H -0.18807796 0.5680536 -0.83674955
H 0.6492289 1.9342493 1.0639172
H 1.2708852 0.54843104 1.9804955
H -0.9222429 -2.0663624 -1.8199918
