13

C 0.5828759 -1.5826648 -1.1680826
N 0.22868738 -0.6434125 -0.12611215
C -0.052226886 0.6589188 -0.3777903
O -0.074758165 1.1696081 -1.4838995
C -0.33507648 1.4762582 0.87896955
O -0.5609861 0.6933932 2.0380428
H -0.112570666 -2.4278226 -1.184101
H 0.5319248 -1.054585 -2.1205082
H 1.6002871 -1.9618171 -1.0221876
H 0.26785037 -0.91498816 0.8452592
H -1.1672671 2.1541111 0.65387434
H 0.54902595 2.0907407 1.0816941
H -1.4577662 0.34226036 1.984841
