11

O -1.2733008 -0.17742266 1.9308405
N -1.1697387 -0.766914 0.672539
C -0.24055533 -0.22940667 0.007153448
C 0.29456538 -0.46747497 -1.3774881
O 1.2569872 0.5865426 -1.1732616
C 0.7911532 0.8582795 0.16394146
H -2.0001414 -0.6684138 2.331773
H -0.39344633 -0.24772638 -2.2018874
H 0.7719584 -1.4384748 -1.5476137
H 1.562937 0.6756315 0.920688
H 0.39958125 1.8753797 0.27331564
