11

O -0.12826656 -1.2147729 -1.3446244
N -0.04543063 1.3012663 0.8401517
C 0.2728891 -1.1459762 0.037803188
C -0.46537933 0.18495975 -1.3983003
O 0.42615053 0.9085936 2.0959313
C -0.06604644 0.3230989 0.043615974
H -0.3434529 -1.7790544 0.6858123
H -1.525948 0.34675488 -1.6188383
H 0.39061144 1.731372 2.5980208
H 0.15269649 0.732492 -2.1182113
H 1.3321764 -1.3887339 0.17863934
