9

N -0.33157668 -0.026822053 -0.3376886
C -1.697349 -0.28679827 -0.3308124
N 1.6601657 0.25603533 0.6202251
C 0.36646357 0.015480728 0.8332737
O -2.3627942 -0.3362888 -1.3339399
H -2.0727468 -0.43763933 0.6929428
H 2.2748873 0.3089631 1.416076
H 0.064554915 0.11770254 -1.2700169
H 2.0983946 0.38936675 -0.29005963
