10

O 1.7084666 -1.780979 0.82971233
C 1.1512309 -1.4677013 -0.19525707
C 0.19452626 -0.33917275 -0.2617924
N -0.39177793 -0.041057687 -1.3915502
O -1.1896634 1.0296363 -1.1239743
C -1.066475 1.360268 0.17589079
C -0.1997002 0.530367 0.7958997
H 1.3214101 -2.0018108 -1.1481946
H -1.6588441 2.2046928 0.49772003
H 0.1308269 0.50575745 1.8215458
