11

C -0.19408190 -1.19838383 -0.34996606
C 0.09077538 0.16040722 -0.90536312
C -0.54390567 1.27765530 0.87692486
N 0.32114323 0.51677885 1.40699328
C 0.82174090 -0.30597259 0.32494053
O -0.75927275 1.20388867 -0.45966671
H -1.14072841 -1.36782319 0.15265050
H 0.49635252 0.32900094 -1.89427101
H 0.19083911 -2.04182833 -0.91129264
H -1.14700442 2.01747914 1.39208450
H 1.86414202 -0.59120217 0.36696611
