11

C -0.8798352 -0.7992506 -1.1915504
C -0.12738542 -0.06288275 -0.14152499
C -0.26234856 1.1334571 0.47036827
N 0.76156324 1.3029507 1.397575
C 1.4469378 0.22040285 1.2989655
O 0.9833721 -0.66493154 0.3926941
H -1.2605402 -1.7524757 -0.8114184
H -1.7303915 -0.19560167 -1.5197544
H -0.24948385 -1.0089359 -2.0603611
H -1.018472 1.890131 0.31860074
H 2.3365836 -0.06286349 1.8464059
