11

C 0.28099638 0.24775998 -0.2496133
C -1.2071961 0.43022838 1.3386394
C 1.6803257 -0.20124173 -0.38951316
N -1.6725236 -0.5636647 0.6268596
C -0.8243504 -0.6257679 -0.4400616
O -0.097834624 1.0061686 0.89525145
H -1.656469 0.8511115 2.2283566
H -1.0335857 -1.2304004 -1.3162471
H 0.30083707 0.77717334 -1.2359495
H 2.4041538 0.5344234 -0.7254774
H 1.8256464 -1.2257904 -0.732245
