11

O 0.97630845 0.61802023 -2.18814538
C -0.03924923 0.69813190 -1.53402164
C -0.21985252 -0.01831430 -0.26269157
C 0.68097352 -1.00235128 0.48245587
O 0.23520694 -0.45128540 1.74839747
C -0.57975611 0.46213537 1.07063988
O -1.53873781 -0.18648275 0.29510657
H -0.89959970 1.32703232 -1.83381879
H 0.44557168 -2.06337968 0.37495479
H 1.74467597 -0.80627712 0.32873203
H -0.80554154 1.42277068 1.51839051
