17

C 0.21607983 0.4329136 -1.7695063
N 0.7113232 0.48715046 -0.4080675
C 0.14071135 -0.18744706 0.64360464
O 0.61787516 -0.18299772 1.772802
N -0.99209774 -0.9173156 0.3414951
C 1.7990167 1.405293 -0.13504882
C -1.7339537 -1.5239719 1.4314349
H -2.4566884 -2.2300937 1.0193136
H 1.5017983 2.4448943 -0.32950625
H 1.0453659 0.631383 -2.4562144
H -1.0388436 -2.067213 2.076097
H -0.5705154 1.1760161 -1.9674964
H -0.16421093 -0.56739074 -1.9984893
H -1.5599985 -0.5885105 -0.4246735
H 2.0745678 1.3018364 0.9141291
H 2.6672223 1.1710792 -0.7627372
H -2.2576518 -0.7856259 2.0528631
