11

N 0.17688516 0.78126085 0.27362692
C -0.08249183 -0.5394374 -0.19222797
O 1.0519191 2.8249943 -0.20926285
C 0.83616745 1.6781474 -0.53062373
C -0.66198146 -1.5043198 0.73560375
O 0.6955406 -1.1026694 -1.0288223
H -0.19557452 -2.482504 0.7955613
H -1.1800491 -0.5788635 -0.6533898
H 1.1412855 1.2375389 -1.4909856
H -1.6785564 -1.3820771 1.1024144
H -0.103144534 1.0679296 1.1981059
