11

N -0.37837565 0.6527409 -0.24860264
C 1.1095194 -0.75152355 1.0772543
O -0.25771236 -1.570361 -0.7303359
C -1.2941447 0.989671 -1.2331774
C 0.107341684 -0.6429218 -0.048374847
O -1.697134 2.1179538 -1.3783087
H 0.6678611 -0.4135485 2.0204055
H -1.5939683 0.12406875 -1.8430755
H 1.4191608 -1.7912694 1.1703297
H -0.067373514 1.411096 0.34397238
H 1.984826 -0.12590605 0.86991286
