10

O 0.23097543 -0.6507644 -2.177268
C -0.17709558 -0.82493544 0.783199
C 0.12250886 0.37174213 -1.5336882
O -0.43202588 -0.48983812 1.9988796
C -0.05691403 0.34516945 -0.06157411
O -0.11861258 1.424161 0.64595324
H 1.0296141 -0.64936763 0.37714186
H -0.34427577 0.90203863 1.5993162
H 0.13185835 1.382881 -1.9770827
H -0.38603297 -1.8110867 0.34512317
