10

O 0.48453077 -2.01062777 0.43248387
C -0.02811155 -0.95811534 -0.32135651
C -0.35385554 1.62547967 -0.30442186
O -0.84676220 1.60578527 -1.40199131
C 0.13070300 0.36218546 0.38907441
O 0.63219015 0.44219543 1.49053439
H -1.10001411 -1.10156549 -0.53464683
H 0.81827877 -1.63076135 1.25756946
H 0.47265974 -0.88304425 -1.29856910
H -0.20961898 2.54846846 0.29132375
