12

N -0.7445212 -1.0219831 -1.0313001
C -0.23246099 -0.63487345 0.27865398
C 0.5677219 0.6649287 0.08481241
O -0.17187198 1.574916 -0.6782643
C 0.88917935 1.2575809 1.3963645
N 1.1533126 1.6812179 2.4376698
H -0.04214539 -1.527966 -1.5627005
H -1.5564821 -1.6160467 -0.947817
H -1.0865134 -0.41286075 0.9305129
H 0.3882156 -1.3936986 0.7711444
H 1.5267876 0.4264426 -0.40434098
H -0.69122183 1.0023422 -1.274735
