11

N -0.87788177 0.98849005 -1.3409213
C -0.28147256 0.23971923 -0.31093037
C 1.0149187 0.30404842 0.15615296
N 1.0789627 -0.5567859 1.2085747
N -0.07401957 -1.176594 1.4521291
C -0.90933734 -0.6998998 0.5391412
H -1.5608971 0.4509673 -1.8590592
H -0.19505282 1.3599519 -1.9875722
H 1.8686048 0.88246775 -0.16616042
H 1.8739531 -0.75551456 1.7908337
H -1.9377785 -1.0368502 0.51781183
