11

N 1.1959286 -1.2910768 0.3619891
C -0.62784904 0.48285195 0.54406834
C 0.010658516 -0.66734576 -0.17458326
N 0.28064695 -0.113736294 -1.5220927
N -0.16055477 1.0480306 -1.6110244
C -0.7280301 1.4587687 -0.35109553
H 1.8799505 -0.5855327 0.61490184
H -0.9565848 0.4841232 1.5747825
H -1.1308933 2.4591303 -0.27877313
H 0.96811694 -1.816734 1.1968986
H -0.73138946 -1.4584793 -0.35507143
