11

C -0.4385096 -1.3787391 -0.569968
C -0.51386946 0.014850989 0.038188975
C 0.8414311 0.6442712 0.22515133
O 1.8963908 0.14079021 -0.059024915
C 0.81114626 2.0092764 0.8199801
N 0.7809502 3.065972 1.2819598
H 0.04870011 -1.3554386 -1.5485547
H -1.4447116 -1.7876757 -0.69226086
H 0.1350382 -2.055727 0.07040681
H -1.0084563 0.004582157 1.0184729
H -1.1081101 0.69783765 -0.5843514
