11

C -0.3664969 -0.04172238 -0.34659362
C 2.6466956 -0.24406445 -2.064806
C 1.0953805 0.012258547 0.009410826
O 1.5664917 0.15236478 1.1003163
C -1.2766367 0.093527965 0.86447895
N 1.9511412 -0.12453544 -1.1182257
H -1.0975794 -0.70880866 1.5854249
H -0.54973245 0.75291246 -1.0812694
H -0.53575957 -0.98604035 -0.87933964
H -2.3233705 0.049624227 0.55158514
H -1.1101341 1.0444833 1.3790185
