10

O -1.4179896 -1.2538435 -0.6180014
C -0.46189088 -0.42478922 -0.08660094
C -0.18788947 -0.26499695 1.2350891
N 1.1351382 1.3189151 -0.24529877
N 0.4284799 0.31459025 2.1371186
C 0.31691387 0.53965724 -0.84473205
H -0.56225944 -0.7049462 2.2704039
H -0.9800534 -2.0052748 -1.0338744
H 0.12823652 0.53109735 -1.9250193
H 1.6013142 1.9495908 -0.88908505
