12

N 0.8060786 -1.0534866 1.0397393
C -1.5489314 0.9084159 -0.2187536
C 1.3328097 0.08392262 0.82715905
C -0.368725 0.15729964 -0.6894033
N -2.4537976 1.5174415 0.15878743
C -0.21431562 -1.2318856 0.005149969
N 0.8745966 0.8075749 -0.27467403
H -0.4249772 0.06955163 -1.777863
H 0.8745288 1.8172047 -0.21676554
H -1.1507919 -1.5871286 0.4424192
H 0.12794067 -1.9795212 -0.7178783
H 2.145584 0.49061108 1.4220827
