12

N -0.37304800 2.50852338 1.38459752
C -0.35728929 1.67272884 0.58871348
C -1.03697530 -0.69850670 0.01644471
C -0.29915227 0.60341996 -0.42704856
N 1.06483225 0.09989700 -0.59050418
C 1.11437536 -1.10071027 0.11925328
N 0.00757330 -1.61844216 0.47036388
H -1.56641575 -1.14072622 -0.83385109
H -0.69038072 0.99806544 -1.36875116
H 1.82180156 0.75915577 -0.46769916
H 2.07929365 -1.56677740 0.29714605
H -1.76461477 -0.51662759 0.81133501
