11

N -0.95867896 0.8906021 -1.2434025
C -1.2268708 2.027505 -1.3711234
C -0.6043934 -0.47018027 -0.98245275
O -0.68051445 -0.76791155 0.38083187
C 0.16822131 -0.010487662 1.207368
C 1.596723 -0.21848473 0.885624
N 2.7033925 -0.3935247 0.60991883
H -0.024087425 -0.34718627 2.22831
H 0.4046294 -0.64618564 -1.3754936
H -1.3205545 -1.1257038 -1.4775192
H -0.057866722 1.0615578 1.1379385
