11

N 0.6109219 2.4796574 -0.06633245
C 1.2354738 1.4802786 0.15141201
C -0.25075457 0.9274057 -0.6771234
O -0.98682976 0.2129174 0.22250578
C 0.21761 -1.843482 -0.07530577
C -0.30518615 -0.8441325 0.87359565
N 0.62048477 -2.5986664 -0.8485514
H 0.2852416 0.31481406 -1.4050776
H -0.9224904 1.6239816 -1.1677264
H -1.0370533 -1.311363 1.5364492
H 0.53258234 -0.441411 1.4561545
