9

O 1.8595359 -1.2231138 -0.88893276
C -0.9946316 0.675203 0.4931623
C 1.0762951 -0.3641762 -0.21148396
C -0.2582031 -0.27732497 -0.27827683
C -1.636734 1.4663537 1.1326354
H -0.82370573 -0.9424342 -0.93072295
H -2.2004557 2.1695998 1.703093
H 1.6671252 0.28693503 0.42976478
H 1.3107736 -1.7910422 -1.4492389
