9

O 2.09516497 -1.06928425 -0.45934526
C 1.13251988 -0.18725050 -0.13452575
C -0.18658619 -0.41621120 -0.11388489
C -1.12555034 0.59794380 0.25298124
C -1.93507970 1.43342089 0.55921811
H 1.55571063 0.78160622 0.12325755
H -2.64782501 2.17839470 0.83265412
H 1.69349432 -1.92171925 -0.68214776
H -0.58184780 -1.39690040 -0.37820742
