10

N 1.42470097 -1.35426525 -0.20969870
C -1.04427357 0.99839244 0.14442154
O -2.32095301 1.22721413 -0.13064964
C 0.89456342 -0.16924336 0.19623171
O 1.51357913 0.69064173 0.78930804
N -0.47648234 -0.09286231 -0.17734738
H 2.38634135 -1.54510644 0.00402017
H 0.84939014 -2.02463464 -0.68774849
H -0.56495863 1.82913472 0.65845495
H -2.66190760 0.44072924 -0.58699217
