10

N 0.8260346 -1.504919 -0.45550966
C -0.20449652 -0.64689857 -0.36517107
O -1.3339008 -0.81556636 -0.78430355
C 0.20331365 0.645724 0.36249393
O 1.3329142 0.8122387 0.78474736
N -0.8242214 1.5072553 0.45198265
H 1.7118356 -1.231925 -0.057492837
H 0.70391554 -2.398596 -0.90220255
H -0.7024455 2.397158 0.9058279
H -1.7129495 1.2355292 0.05962784
