10

N -0.52138054 0.9129753 -1.033503
C 0.7884726 0.62711936 -0.47801527
C 0.6309566 -0.04720456 0.7476773
C -0.7435437 -0.37020037 1.0325993
C -0.7264008 -0.35605857 -0.41301855
H 1.6606212 0.6556412 -1.1206541
H 1.4919912 -0.49419576 1.2591027
H -0.7040646 -1.2114986 -1.0860543
H -0.898923 -1.3242403 1.5376288
H -0.9777289 1.6076622 -0.44576252
