9

O 1.93584847 -0.17622229 -1.10173566
C 1.67336595 0.50354537 -0.13561320
C 0.35433781 0.55982010 0.53530522
C -0.67251357 -0.14901937 0.12304672
C -1.70325390 -0.83880925 -0.26656062
H 2.44038615 1.15865272 0.32895786
H 0.25706715 1.21871212 1.39545482
H -1.89444214 -1.83192385 0.13092777
H -2.39079566 -0.44475558 -1.00978300
