11

O -0.97490239 0.13421692 2.03609610
C -0.45685976 -0.00861956 0.78972454
N 0.67932403 0.69296210 0.38070824
C 1.06599736 0.29184683 -0.89726635
O 2.04283674 0.64985486 -1.52769715
C -0.84143487 -0.80448531 -0.22081492
N 0.08060685 -0.60102614 -1.26272305
H -1.34252049 1.02312037 2.13760965
H 1.29402974 1.21886425 0.98134599
H 0.13913565 -1.12705215 -2.11621073
H -1.68621296 -1.46968200 -0.30077276
