11

C -1.4719365 0.7929821 -0.4511291
N -0.47950682 -0.088267215 0.12478294
C 0.84188235 0.024007844 -0.12392842
O 1.3848258 0.8436287 -0.84167373
C 1.6745684 -1.0241756 0.6099957
O 1.1951537 -1.8575194 1.3324378
H -0.9528722 1.5195653 -1.0808549
H -2.183149 0.23250724 -1.063696
H -2.0181344 1.3281844 0.33323246
H -0.7501442 -0.83309704 0.7517968
H 2.7593129 -0.9378163 0.40903652
