10

N -0.6567056 -1.2217911 1.1874949
C -0.18010114 -0.30630043 0.25531816
C -0.7815498 0.73182523 -0.37653896
O 0.14238851 1.2681091 -1.2485268
C 1.2316024 0.5174125 -1.080499
N 1.1180921 -0.4274412 -0.20953088
H -1.3174508 -0.83839536 1.8491161
H 0.10199071 -1.6870756 1.6635624
H -1.7534447 1.1949188 -0.35904258
H 2.0951781 0.7687382 -1.6813532
