10

N 0.027568761 0.83877635 0.26165655
C 0.14422153 1.4881549 -0.9364573
C -1.2172192 -0.7969659 -0.35272503
O -0.31902367 1.2022758 -2.0261426
C -0.12062972 -0.50030386 0.3916467
N 0.557137 -1.1818309 1.3260713
H 0.73994935 2.41038 -0.80571127
H 0.23454139 -2.0927775 1.6048026
H -1.1444371 -0.7309679 -1.4418983
H 1.0978917 -0.6367405 1.9787571
