10

C 0.73430604 -0.29491657 -0.52286
C -0.61737347 -0.8419249 -0.27237296
N 1.6157836 -0.82639265 -1.2629368
C -1.2225096 0.018161459 0.5599281
N 0.88704246 0.9290983 0.2073021
C -0.23442979 1.092482 0.8193661
H -2.2195292 -0.023112036 0.9776534
H -0.9882377 -1.7622557 -0.7031268
H 2.4528499 -0.24005948 -1.2655665
H -0.40790224 1.9489197 1.4626132
