10

C 0.56726182 -0.46743847 0.59939887
C -0.16679751 1.33211532 -0.34275710
N 0.70449067 0.95764550 0.52881953
C -0.95003166 0.21705021 -0.92666505
N 1.24303685 -1.23669469 1.34689880
C -0.49276752 -0.89817529 -0.33857925
H 1.90995998 -0.68217206 1.88744638
H -0.29366032 2.37807637 -0.60201828
H -1.72394635 0.32625268 -1.67458008
H -0.79754613 -1.92665956 -0.47796377
