11

N -0.72963920 -1.24125029 -0.68999257
C 0.78266888 -0.31712216 0.58801079
N -0.18771771 1.99718222 0.35942297
N -1.04672547 0.06889624 -0.70566538
C -0.13848041 0.63338037 0.07356760
C 0.35782449 -1.51522463 0.06210423
H 1.61583612 -0.14064276 1.25278767
H 0.72295486 2.43652753 0.37033791
H -0.81234790 2.48268189 -0.27067550
H -1.30177036 -1.88388629 -1.21151817
H 0.73739646 -2.52054192 0.17162047
