11

N 1.4745151 0.3694916 1.3583663
C 0.4383906 0.20122474 0.43908763
N -0.27845475 1.2336112 0.022117112
N -1.2151606 0.686145 -0.7792268
C -1.0993125 -0.65378225 -0.88941216
C -0.029133558 -1.0215871 -0.10584015
H 2.285672 -0.1975091 1.1539936
H 1.7333672 1.343133 1.4466232
H -1.8915092 1.2913519 -1.2144542
H -1.7758375 -1.236413 -1.4978194
H 0.35746297 -2.0156658 0.0665649
