9

O 0.017986197 0.821839 0.9598482
C 0.4942466 -0.15636675 -0.98621434
C -0.5718729 -0.6087446 0.9564174
O -0.80872655 -1.156342 1.9894874
C 0.6292365 0.9584771 -0.17439172
N -0.23331192 -1.1045582 -0.38097325
H 1.0867772 1.9158387 -0.39999893
H 0.80186397 -0.26750782 -2.0173109
H -1.416199 -0.40263548 0.053135995
