9

O -0.6255231 -0.5962581 1.0689626
C 0.14802665 0.9837045 -0.28306162
C -0.52414805 0.7553327 0.84980553
O 0.08771873 -2.4529285 -0.056108903
C 0.0037851022 -1.2585285 0.039974794
N 0.47945017 -0.2714381 -0.792045
H 0.98699534 -0.4740196 -1.6361054
H -0.97548765 1.407871 1.5790509
H 0.4191828 1.9062644 -0.77047306
