9

O -1.1203545 0.36491743 -1.0472275
C 0.07417885 -0.08981302 -0.5137618
C 0.48693553 0.7427228 0.7024669
O -0.23162842 1.6248555 1.0956064
C -0.0037465862 -1.5047145 -0.066435486
N -0.0539833 -2.5933123 0.31572008
H -1.475724 1.0010505 -0.40421286
H 0.87639254 -0.03008821 -1.26292
H 1.4479299 0.48438174 1.1807643
