11

O -1.1972476 1.5826335 -1.6553943
C -0.8030387 1.0397271 -0.6720533
C -1.0540826 0.058242798 0.4277025
C 0.2798298 0.81254756 0.339426
N -0.7561025 -1.3309197 0.1372973
C 0.5015935 -1.395305 -0.059459765
N 1.2448884 -0.2402004 0.13461483
H 0.5866596 1.6068095 1.019953
H 1.0159713 -2.3100255 -0.34175417
H 2.01807 -0.057825044 -0.48876122
H -1.836541 0.23431492 1.158429
