10

O -1.9029757 1.1160904 0.26950258
C 0.5457746 -0.36728287 0.39252082
C -1.6250476 0.39847642 -0.661817
N -0.2644353 -1.2531995 0.746646
O 2.3869295 1.0798435 0.1809309
C 1.7700536 0.3141436 0.8789197
C -0.48450798 -0.57029307 -0.60976845
H -0.29953006 -1.1814029 -1.4898779
H -2.1918812 0.41746485 -1.6138973
H 2.06562 0.04615915 1.9068406
