10

O 1.7119901 -1.7800695 0.82650125
C 1.1525043 -1.4705824 -0.19868463
C 0.19755441 -0.33964828 -0.2612221
N -0.39375335 -0.040885575 -1.3895657
O -1.1937505 1.0325266 -1.118881
C -1.0667602 1.3618985 0.1779547
C -0.19742382 0.5309575 0.7937203
H 1.315004 -2.0057867 -1.1515156
H -1.6610178 2.205905 0.5020581
H 0.13565274 0.50568473 1.8196344
