11

N 0.9416447 -1.9187455 0.7784257
C 0.3320684 -0.8879261 0.35735828
C 1.0755813 0.29973206 -0.028753193
N 0.44127756 1.3390268 -0.47337982
C -1.5904983 0.39330983 -0.26083767
C -0.9668467 1.5357075 -0.65401524
O -1.009057 -0.7868788 0.2233517
H -2.664716 0.25457263 -0.27587527
H 2.156012 0.29284316 0.059366785
H 1.0059409 2.139123 -0.7335822
H 0.2785928 -2.6607645 1.0079408
