11

N 1.62059663 -1.44515066 0.67781402
C 0.67369491 -0.71139838 0.25774928
C 0.62860069 0.69992033 0.60209127
N -0.33480425 1.44106157 0.15183777
C -1.44644223 1.08114325 -0.67812981
C -1.34144576 -0.24807374 -0.94413790
O -0.34456422 -1.13861611 -0.52162163
H 1.50460819 -2.40552216 0.35049084
H 1.41010875 1.11071325 1.23108842
H -0.31773078 2.41895266 0.41668000
H -2.05262198 -0.80303024 -1.54386240
