12

N 0.41597605 0.47567502 -2.0294507
C 0.7384568 -0.9345794 0.010902437
C -0.5528598 0.2855937 1.3355978
N 0.24107182 -0.79226714 1.3370606
C 0.2071528 0.09659921 -0.7089479
O -1.2824094 0.9444433 2.163779
N -0.60773605 0.8393663 0.13082762
H 0.44565415 -1.3707439 2.1315596
H -1.36683 1.5545639 0.93771064
H 0.7459682 -0.28145015 -2.611954
H -0.4009854 0.9110364 -2.436808
H 1.4165407 -1.7282374 -0.26027703
