12

N 0.52871837 0.18690350 -1.33264913
C -0.66950607 -0.42072979 -0.92650062
C -0.62875993 -0.37611809 0.43745754
N -1.53524048 -0.88198231 1.37121144
C 1.17246415 0.53722590 -0.20845926
O 2.36283291 1.15158301 -0.29283553
N 0.53129595 0.22905956 0.88457269
H -1.37890373 -0.82032484 -1.63341950
H 0.85292976 0.34316550 -2.27292728
H -2.49963696 -0.80386524 1.08284274
H -1.38614243 -0.45284601 2.27443912
H 2.64994815 1.30792875 0.61626785
