12

N -0.27226722 -0.012449627 -2.047402
C -0.15836006 -0.03703726 -0.65286136
C -1.0333618 -0.30964547 0.3350762
N -0.35641974 -0.09969936 1.5488014
C 0.9329065 0.33251953 1.3316342
O 1.7737565 0.6554405 2.1486018
N 1.0502151 0.3161664 -0.05499707
H 0.2917004 -0.7233704 -2.499974
H -1.2333834 -0.120909445 -2.3394372
H -2.0481644 -0.6720473 0.2914747
H -0.7619612 -0.09452331 2.4672558
H 1.815339 0.7655557 -0.5281724
