11

C 1.3789821 0.007527371 0.021637613
N 0.23968306 -0.6268327 -0.6304266
C -0.9967321 -0.49994582 0.11049386
C -1.4270598 0.90253335 0.33678737
N -1.7099874 2.0142932 0.46852747
H 1.2455776 1.0833873 0.21009314
H 2.265116 -0.13318267 -0.6045559
H 1.5645044 -0.49135557 0.9793
H 0.11748764 -0.24368523 -1.5604353
H -1.7962875 -1.0266157 -0.41841772
H -0.88128364 -0.986123 1.0869962
