10

O -1.1350069 -0.5496429 -1.1037186
C -0.09678272 -0.18498223 1.5319247
C 0.20775895 -0.13380557 -1.0390524
C 0.60728514 0.28728926 0.36260647
N -0.45081455 0.9784553 1.1917678
H -1.6581993 0.10667532 -0.6209008
H 0.41315168 0.6988273 -1.7314258
H -0.3199032 -0.90428203 2.3084714
H 0.81531507 -0.9855041 -1.3629798
H 1.6171956 0.6869696 0.46330678
