11

O -1.2503718 -1.9710209 -0.35383496
C -0.6592967 -0.939075 -0.072623596
C 1.399656 0.45031008 0.18723172
N 0.6869388 -0.78664416 -0.07427027
C -1.5001676 0.16998589 0.5037839
O -1.9934125 0.86037636 -0.496325
H -2.6254983 1.4968771 -0.13365892
H 2.29796 0.24655834 0.77604413
H 1.6844373 0.96519613 -0.7370451
H 1.2088252 -1.6022499 -0.36975133
H 0.7509295 1.1096863 0.77044946
