11

O -1.0823046 -1.2768769 -1.1888479
C 0.29023752 1.1787877 -0.15858367
C 0.024875721 -0.92463493 -0.55143106
N 0.3768897 0.54362786 1.1023135
C -0.095856436 -0.731152 0.9215783
O -0.4575867 -1.548481 1.743708
H 0.6635986 0.055995386 -0.94819635
H 0.70924664 0.9314134 1.9721051
H -0.69358414 1.5610478 -0.43721738
H 1.111018 1.8561586 -0.40465507
H -0.84653383 -1.6458858 -2.0507734
