11

C -0.3013467 0.020771515 0.040342253
N 1.5149751 -0.9182678 0.6798378
C 1.0426852 -0.016080774 -0.21551815
C -1.3805809 0.82458884 -0.60446566
N -0.56048805 -0.8503362 1.0620075
N 0.53953266 -1.410629 1.4407989
H 2.4598675 -1.2374088 0.8266162
H -2.174799 0.17065458 -0.97501975
H -1.8285598 1.5173979 0.114154525
H -0.9856525 1.4036468 -1.444021
H 1.6743664 0.4956629 -0.9247328
