13

C -1.2411324 -0.13444982 -0.09505643
C 0.27380475 -0.006863363 -0.13972859
N 0.93231237 -0.5312083 0.8086728
O -1.7693012 0.33858538 1.1155411
C 0.98278975 0.68507475 -1.2584286
O 0.32455632 -1.1837752 1.8769587
H -1.3208088 -0.18010965 1.8025372
H 0.6891313 1.7411638 -1.2872937
H 1.5335308 -0.8547697 1.7183187
H 2.0660517 0.61787796 -1.1420871
H -1.6713833 0.46075353 -0.9066828
H 0.6942687 0.24092703 -2.2193258
H -1.49382 -1.1932064 -0.27342606
