12

N 0.23760743 0.20882019 0.37531954
C 1.16461899 0.29178076 1.45742773
O -1.88606223 -0.58773990 0.70548199
N -1.20217521 -0.17594348 -1.42225997
C 1.62206833 0.36316662 0.01491160
C -0.89336321 -0.16218755 -0.08874368
H -1.58019522 -0.47484167 1.62053643
H 1.31274470 -0.70875366 1.88936702
H -0.53703286 0.33506450 -1.99190491
H 1.91888847 1.33220581 -0.38783637
H -2.15822365 0.07446063 -1.62208723
H 2.00112444 -0.49603206 -0.55021245
