12

O -0.65761375 -1.5438436 0.62270534
C 0.040824994 -0.66560465 1.461568
C -0.087348826 1.3425162 -0.34274003
O 0.076924175 -0.39837158 -1.147298
C -0.60790354 -1.3245542 -0.64853203
O 1.1953661 1.6975427 -0.4386886
H -0.057017658 -1.0708292 2.4682336
H -0.47596577 1.4110495 0.66279763
H 1.0684516 -0.53568524 1.1106625
H 1.5041438 1.4939121 -1.3362678
H -0.75425506 1.5709054 -1.1673591
H -1.2456062 -1.9770378 -1.2450817
