13

C -0.72133305 0.69231276 0.64359195
C 0.18353611 -0.32975649 -0.01906815
N 1.23844188 -0.01609314 -0.66429296
O 1.43591041 1.38163009 -0.66710143
C -0.15878790 -1.78513218 0.05736975
O -1.21768269 1.65271711 -0.25025714
H -0.17870377 1.15009883 1.48561554
H -1.59129761 0.16973243 1.05765994
H -0.25422756 -2.10399015 1.10125036
H 2.21830138 1.48254345 -1.21800856
H -0.44479758 2.05995325 -0.66629559
H -1.12204448 -1.96990565 -0.43004640
H 0.61268515 -2.38411063 -0.43041734
