13

C -0.5478324 0.025229294 1.7059473
C 0.02450958 0.17153968 0.33052093
N 1.1367713 0.78952307 0.23188825
O 1.5606884 0.8752295 -1.1052104
C -0.71898395 -0.41500306 -0.8560758
O 0.061551515 -1.3106401 -1.6074442
H 0.08356858 0.52865714 2.44038
H -1.5573586 0.44976062 1.7512132
H -0.62874067 -1.035126 1.9683113
H 2.4163103 1.3099681 -1.02963
H -1.1016318 0.41272214 -1.4718186
H -1.5837705 -0.9823662 -0.49367782
H 0.85491854 -0.8194945 -1.8644042
