11

O -1.0502735 -1.0852755 0.45261845
C -0.40838584 1.303821 0.19106588
O -1.3104938 2.0771222 0.19707899
C 1.2488985 0.1186969 0.30887088
C -0.16201705 -0.14468384 -0.20450832
C -0.63769734 -0.98897916 -1.3072581
O 0.88549054 1.4962507 0.58490956
H -1.58293 -0.53654206 -1.6503397
H 1.5385172 -0.39754495 1.2273335
H 2.028357 0.049152926 -0.4526096
H -0.5494655 -1.8920181 0.6528384
