11

O 0.7002056 -1.395842 -1.0259944
C 0.5598489 0.04050796 -1.2290686
O 0.42998114 0.9502635 1.1955862
C -1.2496238 0.9099086 0.63123995
C -0.09771436 0.1460263 0.13849169
C 0.17403045 -1.3466758 0.23141971
O 0.011267484 -2.2322934 1.0075397
H 1.5347594 0.521524 -1.3150519
H -0.21149237 1.8161384 1.0422882
H -1.7667505 0.32788655 1.4065481
H -0.08451206 0.26255566 -2.0829988
