10

O -0.4074792 1.3622446 -0.9064477
C -0.5193321 -0.00022964367 -1.0643032
C 0.578314 -0.30738816 -0.12426823
O -0.033778045 -1.3519542 1.0432305
C 0.43354043 1.1455497 0.27480555
O -1.3282541 -0.60696733 -1.7047881
H 0.86886734 -1.5509796 0.47372255
H -0.7912011 -1.7669095 0.58918077
H 1.3389003 1.753097 0.23249851
H -0.13957752 1.323537 1.1863692
