11

N -0.34248802 1.88985191 -0.77043095
C -0.20647591 -0.04172672 0.90323249
C -0.09354393 0.69805706 -0.42192247
N 0.39005514 -0.27719120 -1.29740008
C 0.60681835 -1.51812565 -0.77060058
N 0.25334789 -1.36654489 0.51823583
H 0.43503273 0.41334384 1.66645160
H -1.24043388 -0.04868752 1.26672555
H -0.68310296 2.44580969 0.00956410
H 0.56360631 -0.05985995 -2.26572557
H 0.31718424 -2.13492655 1.16187004
