13

N -0.31129119 0.83908650 -1.07342121
C 0.72983102 0.31567206 -0.11624593
C -0.00463403 -0.59316955 0.82673007
N -0.77343922 -1.54700146 -0.00114771
C 1.49072391 1.37850842 0.40342247
N 2.15099044 2.26424371 0.78135510
H -0.93831146 0.02750864 -1.21468656
H -0.11801318 -2.19824381 -0.42421040
H 0.10704699 1.10759055 -1.96208063
H 0.72684759 -1.05846499 1.50066158
H -0.87796755 1.63201366 -0.74993811
H -1.42626153 -2.07852611 0.55897967
H -0.75552215 -0.08921763 1.47058119
