10

O 0.11059592 1.8730242 -0.41498864
C -0.39442736 0.80068403 0.35350296
C -0.7822598 0.947637 -1.0466065
C 0.45605975 -1.4528557 0.74694556
N 0.5544355 -0.15150218 0.7150867
H 1.1578575 -2.027906 1.3396919
H -1.7743943 1.3231193 -1.2881348
H 1.3574843 0.2705278 1.1774199
H -0.3087044 0.34563535 -1.8241688
H -0.37664744 -1.9283638 0.24125172
