10

O -1.0638801 1.0109999 -1.4617838
C -0.5548237 0.41614726 -0.43883333
C 0.8272961 -0.04708237 1.4151484
C -0.28975213 -0.66960543 -1.3100684
N -0.09029264 0.7233914 0.7533397
H -0.48198575 1.5458444 1.1983496
H 0.45243254 -0.5500724 -2.0935588
H 0.6753309 -0.20867994 2.474989
H -0.93819004 -1.5415927 -1.3519466
H 1.4638647 -0.67935026 0.8143641
