9

N -0.7311347 1.719341 -0.564436
C 1.2469 -1.050327 -0.5891159
O 1.0808258 0.26302654 -0.36833686
C -0.5586334 0.42332754 1.3900654
O 0.072153404 -1.6257443 -0.36883226
C -0.11727491 0.829273 0.06858422
N -0.88989484 0.11583727 2.4526315
H 0.186937 -2.5688465 -0.5530657
H -0.28987846 1.8941123 -1.4674942
