12

O -2.4982753 0.85018194 0.2912619
C -1.4656136 0.49359268 0.94509375
C -0.333669 0.17199154 0.085930035
O 0.88655657 -0.06066448 0.51337606
C 1.8564295 -0.44411042 -0.4783881
O -0.67774934 0.09017142 -1.1564521
H 2.775131 -0.62804633 0.0767055
H 1.9954466 0.36626047 -1.1969776
H -1.6410317 0.48167196 -1.031248
H -1.2382013 0.7862013 1.9781034
H 1.5269097 -1.345992 -0.997288
H -1.1859332 -0.7612581 0.9698831
