12

O -0.66542494 -1.4492764 0.8771335
C -0.058946174 -0.22365133 1.2005835
C 0.44356847 0.4533983 -0.07468724
O 1.325739 -0.42285216 -0.7243221
C -0.70914465 0.7749455 -0.9980147
O -0.7226652 0.38016602 -2.1381664
H -0.026090557 -1.9097635 0.31471464
H 0.7866648 -0.34977147 1.8905888
H -0.81505257 0.39747664 1.6927425
H 0.93796474 1.4035335 0.19105676
H 1.0260895 -0.45851967 -1.6477345
H -1.5227025 1.4043143 -0.5838944
