11

O -1.2454928 0.9875792 -0.90728086
C 0.7734779 -0.75302076 -1.0130981
C -0.007982438 1.321422 -0.8025837
C -0.50701606 1.1801142 0.61770993
N 0.14701924 -1.0786291 0.15909915
C -0.33630642 -0.108997874 1.0500284
N 0.9421482 0.4735811 -1.3718623
H 1.2254567 -1.5850374 -1.55305
H 0.18059443 -2.0368521 0.4723688
H -0.35957733 -0.3983646 2.0940926
H -0.81232136 1.9982053 1.2545762
