11

O -1.28163435 0.58465542 -1.29410325
C -0.38771941 -0.33419244 1.34930964
C 0.95513028 0.38179698 -0.54681141
C -0.07346838 0.53225150 -1.52764036
N -1.15411243 -1.21676834 0.68564008
C -1.79083394 -1.97368455 0.03839241
N 0.65042109 0.24968563 0.77462750
H 1.30364039 0.67052832 1.42570895
H 1.98637952 0.62932486 -0.76758218
H 0.32228446 0.67513804 -2.55243053
H -0.53008721 -0.19873555 2.41488902
