9

O -1.6621165 -2.3401046 0.4791841
C -0.112696 1.1667149 0.38733628
N 0.18714917 -1.1460183 -0.40997157
C -0.7857765 -1.6758647 0.08308021
C 0.7063695 0.18080029 -0.42262822
O -1.1131527 0.8601822 0.97757566
H 1.7344614 0.1936375 -0.036753718
H 0.76546323 0.5587075 -1.45261
H 0.28029856 2.201945 0.39478734
