9

N 0.17396518 -0.02108762 -0.43896100
C -0.38077508 0.05419122 -1.71101680
N 0.10320325 -0.01518882 1.78764291
C -0.61701391 0.07847745 0.66980823
O 0.27079413 -0.02736375 -2.72142053
H 1.18876023 -0.15180337 -0.43393035
H -1.47119371 0.19496858 -1.66422498
H 1.11177411 -0.14987906 1.84278457
H -0.37951400 0.03768537 2.66931742
