9

N -0.5944479 1.2845168 1.252589
C 0.65687835 -1.0072217 -1.1648635
N 0.51963055 -0.011338946 -0.21000753
C -0.70752704 0.39595914 0.23522232
O 1.7197274 -1.372511 -1.6008568
H -0.32162476 -1.4180447 -1.4696676
H -1.1088005 0.070786774 1.3683121
H 1.3746223 0.43638957 0.117370054
H -1.5384586 1.621464 1.4719019
