11

C 1.8717496 0.120427154 -0.11852184
C -0.84004205 -0.10415407 1.0068964
O -0.25064182 -0.8280641 -1.255697
C -0.5915633 0.3117264 -0.4180249
C 0.7728162 0.55330795 -0.93906546
N 2.8226104 -0.12890053 0.4942718
H -0.8443752 0.7806666 1.6517092
H 0.31404072 -0.23329394 -2.005615
H -0.055896383 -0.785416 1.3503842
H -1.3891104 0.91417134 -0.8603375
H -1.8095877 -0.60047066 1.094
