9

O 0.40086418 1.3684388 0.5981068
C -0.048604492 0.17529003 1.1149256
C -0.22733428 -0.6553339 0.060845397
O -0.6514676 -1.9296346 0.061011974
C 0.45918405 1.1697568 -0.71875
N 0.099399105 -0.011769306 -1.1091827
H 0.7945853 1.9946617 -1.3296024
H -0.16885842 0.11309117 2.1822355
H -0.65776783 -2.224501 -0.8595899
