9

O -0.26459083 1.5807303 -0.083066374
C -1.0215824 -0.75365794 -0.20662542
C -0.034820408 0.28041708 0.14059678
O 1.712954 -1.2943231 0.24330936
C 1.3661286 -0.13493061 0.2937578
N -1.5674115 -1.799723 0.08055557
H -1.1251205 1.8306203 0.28832102
H -1.1210734 -0.4098228 -1.2832984
H 2.0555162 0.70068973 0.5264497
