9

O -1.1202807 0.36566496 -1.0504713
C 0.07495981 -0.09247266 -0.5135768
C 0.48888355 0.7425759 0.7003681
O -0.22951058 1.6268929 1.0964491
C -0.004663367 -1.5047632 -0.06294766
N -0.058353107 -2.5933046 0.31942213
H -1.4783472 1.0011141 -0.4074489
H 0.87850046 -0.029979933 -1.2616675
H 1.448811 0.48427266 1.179873
