10

O 1.7081584 -1.7790976 0.8292943
C 1.1508515 -1.4693067 -0.19620708
C 0.1949717 -0.3410083 -0.2621379
N -0.39182186 -0.040531248 -1.3927196
O -1.1889877 1.0338594 -1.1213778
C -1.0650263 1.361418 0.17762719
C -0.19965376 0.5286946 0.7951367
H 1.3170636 -2.002446 -1.1501765
H -1.6562039 2.2067494 0.49976122
H 0.13064834 0.50166816 1.8207995
