10

O -1.2029423 -1.6283112 -1.3733174
C -1.0291679 -1.8785712 -0.20249291
C 1.1848985 2.092474 -0.43064395
N 0.028146358 1.4289997 0.032910477
O 2.037778 2.5145185 0.2970134
C -0.44161707 -0.9471734 0.77719486
C -0.14706588 0.2851099 0.39365727
H -1.3238279 -2.8594434 0.22531173
H -0.2667592 -1.2450411 1.8039365
H 1.1605573 2.2374382 -1.5235701
