10

N 0.31470826 -1.1173289 -0.6590835
C 1.4670469 0.998582 -1.0230311
C 0.5120261 0.11730581 -0.4337915
N -0.43046904 0.6116759 0.59353495
C -0.74160963 -1.5331625 0.18265131
C -1.2985733 -0.59840417 0.99827784
N 2.218766 1.7631046 -1.459253
H -1.039707 -2.5723193 0.11934541
H -1.0448933 1.3569093 0.25591618
H 0.04270525 0.9736374 1.4254334
