10

N 0.60361356 -0.17513043 3.303123
C 0.35087645 -0.028870316 2.1847901
C 0.04221738 0.1351051 0.79926497
N -0.6554834 1.1214763 0.28390527
C -0.7013531 0.8638005 -1.0533738
C -0.023095725 -0.29165313 -1.3500336
N 0.4515786 -0.7525068 -0.1543247
H -1.2218914 1.5238327 -1.7337675
H 0.15660414 -0.81027853 -2.2775097
H 0.9969334 -1.5857755 -0.002074042
