12

C -1.2522029 0.23259065 -1.3837491
N -0.22878534 -0.80955833 -1.2436639
C 1.4246781 0.16707979 1.8196994
N 0.5805428 0.20057447 0.7149061
C 0.6096796 -0.81509364 -0.20483322
O 1.454365 1.0359571 2.6546137
H -1.9335005 -0.04033621 -2.190969
H 2.0479283 -0.74084336 1.8331183
H -0.0031896913 1.0295005 0.63901997
H -0.102569096 -1.8205746 -0.5270597
H -0.7664142 1.1800555 -1.6492773
H -1.8305322 0.38064837 -0.46180487
