12

C -1.1238425 -1.0149491 -1.7014099
N -0.9959261 -0.589034 -0.3222769
C 0.057487726 0.021461805 0.00905184
N 0.2445329 0.4706615 1.3119841
C 1.3521628 1.1487008 1.7466457
O 1.5048287 1.5431631 2.8777049
H -2.0042439 -0.5382322 -2.142582
H -0.24844618 -0.7829839 -2.3269653
H -1.295963 -2.09498 -1.7286905
H 0.8959537 0.25180277 -0.6597765
H -0.48924387 0.28558075 1.9872726
H 2.1026998 1.2988087 0.9490419
