11

N 0.90128654 -0.64607847 0.030903349
C -0.1617262 -0.108451314 0.99606955
O -0.4981172 0.076341614 -1.5647618
C 0.54788315 -0.5317954 -1.2390064
C -0.8607128 0.8583892 0.14557958
O 0.109854564 0.7650618 1.9340782
H -0.28570294 1.7439389 -0.089697935
H -0.7284613 -1.0173836 1.2830902
H 1.7315574 -1.1327611 0.3261896
H -1.9421824 0.96421903 0.19258498
H 1.1863211 -0.9714811 -2.0150292
