11

C -1.32789633 -0.38892875 0.70774518
N -1.07720550 0.85276138 0.69047290
C 0.31510246 0.95207564 0.23998452
O 0.88403120 -0.67794365 -1.54071620
C 0.72414624 -0.47873105 -0.18076692
O -0.37281456 -1.27150595 0.32487909
H 0.40631035 1.64950435 -0.59859477
H 0.13891729 -0.27401820 -2.00623303
H -2.26459624 -0.84156113 1.02010176
H 0.93586143 1.33073891 1.05809669
H 1.63814350 -0.85239162 0.28503094
