9

N -0.26323184 1.2200192 1.5193404
C -0.36838824 1.1603899 0.16539377
O -0.7416341 2.0694094 -0.54397136
C 0.016220266 -0.1384145 -0.41082457
C 0.30262333 -1.1634662 -0.97356844
C 0.6308505 -2.3422422 -1.628427
N 0.90402997 -3.3267503 -2.1722596
H 0.04390324 0.43656367 2.0728955
H -0.52437335 2.0844905 1.9714212
