11

N 1.0335488 0.5645831 -0.6884806
C 0.34988806 -0.49796674 -0.21529897
N 0.8596803 -1.7670383 -0.3954068
N 0.36559322 1.6722119 -0.40800688
C -0.7900401 -0.10326846 0.48502755
C -0.7685748 1.2921166 0.3784237
H 1.5589857 -1.8109734 -1.1221827
H -1.5092542 -0.72098345 1.0030923
H -1.5533384 2.019705 0.5532097
H 0.1762392 -2.5051591 -0.455242
H 0.2772719 1.8567725 0.86486477
