11

N 0.93060258 1.39311776 0.65735266
C 1.27295686 -0.00263181 0.94598781
N -0.05113982 1.43550701 -0.11746376
N -1.52944289 0.01707037 -1.34219057
C -0.48533318 0.11014409 -0.45024726
C 0.28044896 -0.79886013 0.17396400
H 2.31821492 -0.15779920 0.64991020
H 1.22378866 -0.13456561 2.03379682
H -2.10114127 0.84724544 -1.39253221
H -2.07289458 -0.83192563 -1.29493129
H 0.21393962 -1.87730230 0.13635378
