9

O -1.3788815 0.7634601 -0.19414984
C 0.7376854 -2.0711303 -0.55831635
C -0.4465646 1.0960797 0.8156779
C 0.3817888 -0.9230482 -0.4964265
C -0.010260544 0.4728594 -0.44239476
H 1.0431557 -3.092038 -0.60993195
H -0.27638245 2.1596618 0.9704097
H 0.446258 1.1119467 -1.1981843
H -0.4967987 0.48220852 1.7133162
