9

O -0.34395469 -0.63663263 -1.41360314
C 1.63565439 -0.36619972 1.52840117
C 0.94054662 -0.05215498 0.59738756
C 0.11603146 0.36800476 -0.52011890
C -1.30631024 0.00452434 -0.59972834
H 0.43806765 1.28432149 -1.01480662
H -1.73282920 -0.61370304 0.18830230
H 2.25012995 -0.65518105 2.35128535
H -1.99733538 0.66702070 -1.11711950
