10

O 0.79569817 1.9350634 -0.7548467
C 0.3553495 0.8906326 -0.3744431
C -0.9293077 0.43978766 0.3275693
N -0.5084079 -0.9576345 0.09279401
C 0.83297795 -0.5648573 -0.3903027
H -0.9564026 0.76147604 1.378255
H -1.8716921 0.7255531 -0.15124519
H -0.49214727 -1.5250946 0.9310952
H 1.6645588 -0.7297322 0.30897823
H 1.1093731 -0.9751939 -1.3678539
