11

N 0.98918134 -0.8469651 -1.52699
C 0.2483916 -0.22170414 -0.5577994
C 0.58911824 -0.27676025 0.8128719
N -0.118946746 0.38116843 1.704349
C -1.1517544 1.086136 1.2114873
N -1.509313 1.1595681 -0.06070162
N -0.8007745 0.48593113 -0.96286273
H 1.5307797 -1.6553284 -1.269923
H 0.54111505 -0.9012933 -2.4302626
H 1.4382373 -0.85981977 1.1639072
H -1.7560349 1.6490673 1.9159238
