11

N 0.41185486 0.43392006 1.7624944
C -1.1335886 0.52876604 -0.15004781
C 0.41872013 -0.4385959 -1.6707788
N -0.023790982 0.6950795 -1.0278584
C -0.106107175 0.03736362 0.57587075
N -0.2459 -1.3596923 0.18000036
N 0.24234939 -1.5580369 -1.0466635
H 0.89175344 -0.3622105 -2.6420999
H -2.1146696 0.971685 -0.12124889
H 0.85266304 1.3405923 1.7962961
H 0.8067155 -0.28887102 2.3440351
