11

C 1.2589014 -0.5796563 -0.9850776
N -0.5553875 0.5752931 -1.4017606
C 0.47783762 -0.6359308 0.21668299
C -1.1206023 0.7348003 1.0422913
N 0.5797106 0.08449782 -1.9142684
N -0.5860613 0.20749573 -0.14638107
H 0.15499431 -1.633837 0.5372357
H 0.28575018 -0.17218517 1.4115627
H 2.2052598 -1.0495733 -1.2159218
H -0.50627035 1.5502045 1.4188807
H -2.1941328 0.9188905 1.0367562
