17

C -1.652562 2.4536767 -0.026883267
N -0.35368007 1.3815964 -0.5179997
C -0.60092413 -0.013479254 -0.6015567
O -1.601185 -0.4194606 -1.1533941
N 0.34879977 -0.80339634 -0.01675245
C 0.27070117 -2.2425718 -0.19421732
C 1.4769125 -0.29120687 0.74351114
H 0.22686176 -2.7448847 0.7776536
H -2.4171295 1.6870602 0.139016
H -1.2646489 2.7887955 0.9409917
H 0.57414114 1.6939678 -0.26612532
H 1.1455277 -2.6058388 -0.74697614
H 1.2016885 0.5959612 1.3232663
H 2.3372855 -0.05303432 0.10005428
H -0.84499264 2.0928006 -1.2003272
H -0.6345798 -2.4627852 -0.7590626
H 1.7877837 -1.0572002 1.4588017
