17

C -2.4818583 -0.9264381 0.59646356
N -1.3216622 -0.4224964 -0.11785458
C -0.2644457 0.07038249 0.62499857
O -0.34866643 0.21634944 1.8383365
N 0.8549769 0.42449418 -0.09292962
C 2.0663877 0.76101404 0.62646896
C 0.9328823 0.34937876 -1.5396851
H -2.2657719 -1.833515 1.1758027
H -2.83492 -0.16328022 1.2933687
H -3.2759693 -1.1409069 -0.1230473
H -1.0843772 -0.9273201 -0.9580954
H 2.8511002 0.009080681 0.45872524
H 1.8338995 0.8034495 1.6903095
H 2.449294 1.73542 0.30210903
H -0.021699619 0.63878447 -1.9901185
H 1.6940951 1.0558273 -1.8850538
H 1.216735 -0.65022385 -1.8997988
