10

O -1.9624714 0.9931563 -0.18855841
C -0.80661255 0.35111722 0.041439675
N -0.4782103 -0.29958552 1.1164101
C 0.79894245 -0.7665268 0.8575802
C 1.2172573 -0.38398218 -0.37994322
N 0.15805618 0.34811792 -0.9084116
H -2.4938102 0.86534375 0.6105828
H 1.3355646 -1.352883 1.5903889
H 2.1303113 -0.54779315 -0.93146497
H 0.100972734 0.7930353 -1.8080237
