11

N -1.0564737 -0.319074 -1.9802917
C 0.3493089 -0.18636301 0.09495296
C -0.5785202 0.7354575 0.72618496
N -1.6405654 1.1224986 0.12501341
N 1.5375547 -0.6346752 0.7161222
C -0.17272896 -0.46526814 -1.133412
H -2.1886888 1.7676686 0.6839396
H 2.386818 -0.33253598 0.25840184
H 1.5671767 -1.6299446 0.8908468
H 0.07001927 -1.1045684 -2.113422
H -0.27390054 1.0468045 1.7316641
