11

O 0.47350081 0.10665024 -2.32432605
C -0.19208622 0.52505422 -1.41229939
C 0.07506427 0.16890785 0.01564491
C 1.43072597 -0.36954906 0.38524534
O 1.74176414 -0.59335971 1.52506597
C -1.08425087 -0.25737870 0.83666852
O -0.53977504 1.02781443 0.96479485
H -1.06217661 1.19805595 -1.55147734
H -0.87717227 -0.93447236 1.66342039
H 2.10287606 -0.55555591 -0.47298821
H -2.06847045 -0.31616687 0.37025094
