9

O 1.1300064 -0.4906365 0.52518356
C 0.17712651 0.42826122 0.7365249
C -0.7037031 0.480739 -0.35743624
O -0.18650064 0.90008885 1.8640168
C 0.77252775 -1.0276666 -0.71562904
N -0.26639187 -0.5400109 -1.2599465
H 1.4247341 -1.8122294 -1.075778
H -1.2275825 0.6617446 1.0410633
H -1.1202172 1.3997098 -0.75799865
