9

O -1.7881935 -1.3674283 -0.1670667
C 0.6023823 -0.7334616 0.010077402
C 0.11296133 1.3749783 0.05953921
O -1.1256664 0.7991676 -0.03484906
C -0.90714127 -0.5729614 -0.07718625
N 1.1282433 0.62042725 0.09147585
H 0.98664254 -1.2579398 -0.87100816
H 0.87839913 -1.3223836 0.89014864
H 0.11237284 2.4596019 0.09886912
