9

O -1.19473120 -0.33396981 -1.88586568
C 0.56503073 -0.73945492 -0.18675820
C -0.62418606 -0.08500904 -0.87195939
O -0.98158409 0.97047433 -0.04099299
C -0.09945560 0.94099401 1.00573811
N 0.78942367 0.04052705 1.02048927
H 1.44367022 -0.72432028 -0.84006415
H 0.34790545 -1.78584210 0.04876311
H -0.24607323 1.71660073 1.75064954
