9

N 0.54025708 1.51246438 -1.55457124
C 0.50104901 0.44859003 -0.86630778
N -0.36861654 0.36698039 0.23027163
C -0.38198944 -0.71918741 0.88151935
O -1.17489745 -0.89603114 1.93931043
H -1.66913778 -0.06789317 2.05684910
H 1.22086770 1.41363976 -2.30286311
H 0.21534908 -1.61510389 0.68701798
H 1.11711822 -0.44345891 -1.07122636
