9

N 0.083146766 0.04875662 -2.0993588
C 0.2855616 0.38558543 -0.8979353
N -0.2587713 -0.37511688 0.13612346
C -0.15112184 -0.1781573 1.423174
O -0.79814976 -1.099646 2.0208955
H 0.3834201 0.61542237 1.945531
H -0.96155006 -1.356751 0.76004106
H 0.87139845 1.2529967 -0.566284
H 0.54606587 0.7069102 -2.722187
