9

N -0.8078991 1.8467287 -0.13094151
C -0.11098383 0.81083125 -0.35047612
N -0.23702303 -0.30892316 0.45739374
C 0.4812081 -1.4711748 0.3016546
O 0.36571604 -2.4407086 1.0093561
H -0.5957828 2.5737436 -0.80500567
H 0.6262894 0.67912424 -1.1481576
H -0.9057153 -0.2638553 1.2171448
H 1.1841904 -1.4257659 -0.55096835
