11

N -1.5256454 0.48767462 -1.4030545
C 0.09279321 -0.16039786 0.26173106
C 0.9098472 0.8509647 0.0204512
N 1.6189291 1.8455855 -0.0079788435
N 0.40484697 -1.1790402 1.2074664
C -1.2213744 -0.23003966 -0.39871567
H 0.80367804 -2.0030432 0.77503073
H -1.8864578 -0.9620003 0.08033617
H 1.0197128 -0.85067016 1.940507
H -2.4847019 0.29967818 -1.6859763
H 2.2683723 1.9012883 -0.7897972
