11

N -0.73043317 -0.7586132 1.5621295
C -0.19487028 -0.13237666 0.4218502
C -0.13247289 -0.61115855 -0.8699598
N 0.4005599 0.3938057 -1.6184661
N 0.69288784 1.4828376 -0.90764904
C 0.33429354 1.1782153 0.33071607
H -0.22038549 -0.53065425 2.403607
H -0.7719449 -1.7641382 1.463948
H -0.4199317 -1.55725 -1.302853
H 0.5833975 0.3946743 -2.6072385
H 0.45889953 1.9046577 1.1239156
