10

O -0.76072353 -0.31626102 -0.04563422
C 0.49702647 -0.4402219 0.61176896
N 0.37904248 -2.4448185 2.2957742
C 0.39950156 -1.5659177 1.544475
C -0.8158605 0.6759539 -0.94913745
N 0.1662685 1.4258647 -1.1951033
H -1.8141161 0.6963879 -1.3954856
H -0.07939551 2.1134584 -1.9036319
H 1.2933795 -0.6241407 -0.1167063
H 0.734877 0.47969508 1.1536803
