10

O 1.6656126 -0.12914722 -1.4453523
C 1.1625538 0.790836 -0.8434569
N 0.2738213 0.6473342 0.18628407
C -0.2157903 -0.6576903 0.57247216
C -1.6503547 -0.8166871 0.28444332
N -2.7800617 -0.9196194 0.07778084
H 1.387786 1.8515458 -1.0554292
H -0.150622 1.4701889 0.585761
H 0.35549417 -1.3917769 -0.00085264986
H -0.04843902 -0.84498394 1.6383495
