11

N -0.73485875 -0.75713134 1.559136
C -0.19554642 -0.13299128 0.42125112
C -0.13038878 -0.6120721 -0.8692164
N 0.4056071 0.39444238 -1.6180786
N 0.69358844 1.4813632 -0.9055496
C 0.33185586 1.1779329 0.33220947
H -0.22120622 -0.5292962 2.401622
H -0.77442646 -1.7623799 1.4626942
H -0.4186508 -1.5585902 -1.302134
H 0.59038824 0.3935779 -2.6069164
H 0.4536378 1.9051443 1.1249819
