11

N 0.62148595 -0.59068394 -1.8436667
C 0.72992676 0.8518107 -0.08777654
C 1.2114161 0.51354706 -1.3599607
N -0.2616561 -1.0260891 -0.9302815
N -1.1004949 -0.490579 1.1979417
C -0.18323354 -0.1750579 0.083469816
H 1.9653246 1.0303612 -1.9419559
H -0.61056966 -0.69289565 2.072553
H -1.5852766 -1.339615 0.8819172
H -1.7900532 0.24469438 1.3705198
H 1.0031306 1.6745071 0.5572399
