11

C 0.44940683 1.0287418 0.05550435
C -0.00642347 -0.22311123 -0.6709563
O -0.6329393 1.8217589 0.47293735
C -0.54371977 -2.1035292 0.77282894
O -0.8630231 -0.96129495 0.24013379
H 1.0938027 0.7385736 0.8996401
H 1.0435864 1.6409554 -0.63023376
H -1.2029965 1.2758394 1.0267831
H 0.4591042 -2.3793864 0.3341748
H -0.632178 0.025083406 -1.5308686
H 0.8353798 -0.8636306 -0.9699435
