13

C 0.12504486 -0.43711000 -0.89987857
N -1.29038591 1.04017609 0.42170864
C 1.12828105 -0.51031101 0.24084622
O -1.32331228 1.22566915 -1.83820894
C -0.89492133 0.69419460 -0.83140676
O 0.45017167 -0.86907466 1.44007195
H -0.43156839 -1.38196117 -0.93722334
H 0.65138964 -0.33112026 -1.85132954
H 1.89084036 -1.26360228 0.00156954
H 1.08383315 -0.83724773 2.16623034
H -0.98876605 0.49547707 1.21855198
H 1.63347074 0.45937610 0.35736012
H -2.03407758 1.71553417 0.51170808
