10

N -0.29160243 1.4160719 -1.0741773
C 0.59135914 -1.4780957 1.0900412
C -0.11814084 0.74295574 0.10432497
O -0.08200911 1.2828134 1.1919022
C 0.09246745 -0.73838377 -0.046888117
N -0.6432142 -1.612341 0.9506679
H 1.3949064 -1.7868534 1.7444828
H -0.55938333 2.3869033 -0.9998247
H 0.19260575 -1.136202 -1.0567012
H -0.5769887 0.92313135 -1.9038278
