12

N -1.8915113 0.69488674 0.9834169
C -0.72743237 0.17031763 0.41568905
C -0.12699264 -1.0356046 0.62761736
N -0.056620903 0.89940685 -0.55063885
C 0.9309817 0.12688345 -0.9083979
O 1.8714925 0.39913094 -1.8286003
N 0.96519864 -1.045238 -0.25457627
H -1.9972488 0.4628096 1.9612429
H 1.659877 1.2740623 -2.1818745
H -1.9236523 1.6961151 0.84608287
H 1.6513653 -1.7695556 -0.3767435
H -0.355457 -1.8732141 1.266782
