12

N -0.22624163 1.4336388 0.61400294
C 0.3753848 -0.40974233 -0.49228874
C 0.5203248 0.9485416 -0.49546272
N 0.94693476 -1.3819532 -1.306149
C -0.77629477 0.3635122 1.2036561
O -1.5333418 0.09683823 2.2063363
N -0.44256458 -0.7542528 0.5689437
H 1.0795705 1.6088685 -1.1396396
H -1.2039752 -1.0994042 1.5656862
H -0.32545596 2.3888245 0.9092344
H 1.2490647 -1.0166422 -2.1987593
H 0.3365942 -2.1782289 -1.4355603
