9

O 0.93306133 -1.75533244 -0.52533153
C 0.25345437 -0.61915535 -0.29103369
N -0.67714304 -0.13969667 -1.14172222
N -1.15912929 0.96907980 -0.65516938
N -0.53991534 1.19293740 0.49613466
C 0.36854888 0.22418071 0.78773575
H 0.62249460 -2.10347967 -1.37290433
H -0.78036058 2.01431571 1.02749113
H 0.97898915 0.21715045 1.67479937
