11

C -1.56714928 -0.11959513 0.69183950
N -2.13701590 0.38011870 1.56338244
C 1.30075875 0.40080708 0.21530102
C -0.77948530 -0.68396132 -0.43524768
N 0.33350035 0.14201753 -0.84598364
H -1.45311682 -0.84304594 -1.28296745
H 0.87280256 0.90379602 1.09593457
H -0.40242819 -1.66806425 -0.13185187
H -0.01584614 1.01821771 -1.21715030
H 2.10616011 1.01995146 -0.18793844
H 1.74181976 -0.55024163 0.53468197
