11

C -0.05851575 0.071340926 -0.30142647
C -1.2036691 1.0004593 -0.018580839
C -0.25761005 -1.2590181 -1.0692607
O 0.42539343 -0.15076557 -1.6284044
C 0.9966167 -0.118332185 0.56016505
N 1.9710355 -0.17802833 1.2792147
H -1.9396924 0.8694967 -0.81231225
H -0.8687207 2.0407555 0.003173479
H 2.1021724 -0.992213 1.8756566
H 0.5012212 -2.0331306 -0.82701665
H -1.6682311 0.7494353 0.9387915
