11

C -0.5203254 1.1356672 0.47686324
C -0.12772612 -0.23396528 -0.02988852
C 1.260955 -0.713131 0.02971171
O 0.2798887 -1.1798928 0.9431834
C -0.9884587 -0.7764747 -1.0795811
N -1.6816571 -1.1688896 -1.9164239
H -1.5266244 1.1113701 0.90410036
H 0.18201405 1.4521843 1.2530748
H -0.50683004 1.8654748 -0.33742228
H 1.6141876 -1.4438365 -0.69388163
H 2.0145764 -0.048506565 0.450264
