9

O 2.0107021 1.5964525 -0.095429875
C -0.7109775 -0.1528652 0.84093034
N 0.478734 0.14213718 -1.1229615
C -0.64584965 -0.5639953 -0.48251915
C 1.0680041 0.863897 -0.1437314
O 0.2756878 0.64949733 1.1087427
H 0.37907815 -1.1569473 -0.6368739
H -1.4330616 -0.9886001 -1.0915688
H -1.4223175 -0.38957626 1.6234118
