11

O -1.0472058 1.3497208 -0.10864394
C 0.072698325 -0.86299556 -0.28657815
C 0.5495668 -0.56952417 1.0823315
C -0.8856548 0.1494413 -0.8401212
O 1.5180358 0.06307127 0.21305017
H -1.862351 -0.35316628 -0.8517375
H 1.4648769 -0.74088407 -0.5452684
H -0.18322644 1.7853874 -0.11521427
H -0.6274074 0.3548877 -1.8903568
H 0.9644462 -1.3767855 1.6880432
H 0.036221467 0.20084709 1.6544945
