10

O 0.44364056 0.56832224 -1.1754992
C -0.4147767 -0.7647876 0.38061035
N 0.17515753 -0.64789337 -1.8176186
C 0.088888556 0.47689173 0.10867531
C -0.3260987 -1.4070525 -0.8840286
N 0.23188628 1.6151567 0.856913
H -0.7896686 -1.1549954 1.3135446
H 0.3051426 1.4550552 1.8497282
H 0.9080404 2.2774284 0.50348026
H -0.6222119 -2.4181256 -1.1358054
