10

O -0.20065789 0.00306893 -1.36430660
C 0.17209002 0.43872499 -0.15824877
N 0.78324104 1.66391401 -0.12135120
C -0.21206364 -0.44515466 0.81158505
C -0.85990123 -1.45785203 0.05367335
N -0.86803656 -1.22154046 -1.22822420
H 1.22188515 1.94948987 -0.98549278
H 1.35742816 1.81910855 0.69283846
H -1.32696562 -2.36359232 0.42086375
H -0.06701911 -0.38616676 1.87866279
