10

N -0.32045415 -1.0019436 -1.5096924
C -0.07622589 -0.442201 -0.26908317
N -0.032736752 -1.1739669 0.8148597
O 0.31589922 -0.30447263 1.8393449
C 0.45366195 0.9231934 1.3355137
C 0.2243059 0.9302389 0.0038089484
H -0.8876481 -0.4303362 -2.1172843
H -0.67235774 -1.9488158 -1.4511225
H 0.7234255 1.6940824 2.0432615
H 0.27213 1.7542212 -0.6896062
