11

N 0.33122036 -1.1929128 -1.1295038
C 0.15796013 0.9262428 1.1782035
O -0.05617023 0.82525384 -2.133206
C -0.12240499 0.083263084 -1.1634842
C -0.7674882 0.65038943 0.0458041
O -0.37048492 -0.38139564 1.4777671
H 1.2308283 0.8431889 1.0036014
H 0.3153054 -1.7262245 -0.27467826
H -1.3695059 -0.1461966 1.0477824
H 0.7571881 -1.5756236 -1.960666
H -0.10644816 1.694015 1.9083794
