10

O 0.16021057 -2.16078990 -0.95842780
C -0.45177192 0.62261552 0.98243342
N -0.57585754 -0.80403931 0.75218949
C 0.02828149 -0.98141595 -0.35530676
C 0.32114155 1.11131700 -0.20804696
N 0.60643348 0.14932204 -1.00430005
H -1.43678159 1.09912415 1.05506436
H 0.07604505 0.82847874 1.92046468
H 0.65054743 -2.00094945 -1.77861629
H 0.62175152 2.13633715 -0.40545397
