11

O -1.5692536 0.06429699 1.8041309
C -0.7009612 0.016032249 0.78314495
N 0.39855105 0.71185136 0.66151386
C 0.9200897 0.29896575 -0.542862
O 2.0793703 0.81648976 -0.998601
C 0.13942046 -0.6405724 -1.1448842
N -0.9267074 -0.81168264 -0.2498443
H -1.2143983 0.70997727 2.4297585
H 2.369838 1.448178 -0.32639152
H 0.22108957 -1.1871188 -2.0691059
H -1.7170386 -1.4264174 -0.34685966
