10

N 1.6959524 0.06274751 0.3800727
C -0.5578674 0.073505685 -0.38180992
O 0.03951192 -0.6373051 1.8010513
C 0.42246467 -0.210046 0.7289534
O -0.21889472 0.53016424 -1.5412121
N -1.8402593 -0.08753833 -0.36519405
H 2.4275846 -0.09258409 1.0560013
H -2.350985 -0.42971757 0.43763113
H 1.906077 0.4142427 -0.5402262
H -1.5235842 0.3765309 -1.5752674
