11

N 1.6578367 0.15406734 -0.8935358
C 0.5260468 -0.021739129 -0.23405863
C -1.0623864 0.90515625 0.66208464
O -1.0330261 0.4545119 -0.6472899
C 0.179531 -1.3817691 -0.45906132
O 0.2764123 0.53496367 1.0192512
H 2.2633965 0.7899613 -0.37219903
H 0.17724216 -1.744159 -1.4804974
H -1.1890645 1.9923712 0.7422882
H -1.7926947 0.39012873 1.3000084
H -0.0032934896 -2.0734932 0.36300975
