11

N -0.62832093 -0.71386284 -1.9416244
C -0.3240578 -0.27964732 -0.7995766
C 0.70743054 -0.8760188 0.13430476
O 0.4367758 -0.24558595 1.3729526
C -0.13122113 0.99094486 1.0477666
O -0.8474267 0.80908924 -0.17184529
H -1.3315648 -0.12761731 -2.3832679
H 0.5906033 -1.9560889 0.23793665
H 1.7203221 -0.64681 -0.22555672
H -0.8281387 1.283284 1.8341821
H 0.63559806 1.762313 0.89472795
