10

O -0.971949 -1.0662178 1.2157984
C -0.61746657 -0.8401148 -0.087097965
C 0.7274907 -0.137973 -0.20170404
O 1.0700432 0.52909553 0.8794427
C 0.021237403 1.3315754 -0.44689786
C -0.93832415 0.5036864 -0.7580109
H -0.38465095 -0.4757772 1.7259237
H 0.49872646 2.2761974 -0.6404563
H -0.8485227 -1.7018069 -0.7094743
H 1.4434154 -0.41866493 -0.9775235
