11

O 0.13528776 -1.0799196 -1.1366904
C -0.667173 0.42815077 0.29281574
C 0.19890173 0.76457894 -0.9126498
O -0.51244724 1.2500076 1.3945543
C -0.11369641 -1.0149788 0.24684572
N 1.2081987 1.0752159 -1.4773306
H 0.792229 -1.1123757 0.8677738
H 0.39836913 1.1708232 1.7078286
H -0.8531203 -1.75852 0.5634826
H 1.1345118 -0.16642424 -1.5568445
H -1.7210609 0.44344166 0.010214478
