11

O -1.80270967 0.03323547 -0.58026171
C -0.80831494 0.49212699 0.29703385
C 0.80111880 -1.14237941 -0.56623446
O 1.61121193 0.79094448 0.58093192
C 0.60715001 0.29758100 -0.26754613
N 0.90016587 -2.28274921 -0.73961227
H -1.73026624 -0.92489697 -0.66212553
H -0.96872682 1.56303337 0.43503456
H 1.56024708 0.31615190 1.42130396
H -0.86315836 0.00577026 1.28654963
H 0.69328248 0.85118196 -1.20507384
