10

O 2.05639753 0.45025284 -0.12028157
C 0.29682876 -1.11628873 0.73187100
C 0.85967147 -0.00680325 0.22824093
N -0.35550961 0.77442695 0.28241120
N -1.79742115 -0.55886133 -0.37092141
C -1.23309170 0.49789882 -0.81184902
N -0.98642562 -0.44842436 0.84201105
H 0.54983964 -2.10988223 1.06240910
H 2.02191058 1.41754561 -0.14934562
H -1.41219969 1.10013567 -1.69454567
