11

O 1.620486 -0.25491795 -2.015738
C -0.9162215 -0.34003788 0.5137354
N 0.02936635 -0.8185587 -0.44733977
C 0.3601326 1.4034326 0.73814607
C 0.91553485 0.017483005 -1.0871621
O 0.83194625 1.2769673 -0.5377966
H -0.12915768 -1.6926541 -0.9255016
H 0.92387426 0.7114978 1.394236
H -1.9486405 -0.36284438 0.14223386
H -0.83472943 -0.83146554 1.485556
H -0.8525911 0.891098 0.7396308
