11

O -2.013846 0.98975956 1.3768903
C -1.0801804 0.6123059 0.7247115
N -0.9735066 -0.55131775 -0.010868475
C 0.40827852 -0.8082961 -0.3564573
C 0.9409428 0.630802 -0.32711554
O 0.078380466 1.3114592 0.58657897
H -1.6057214 -1.2959284 0.23555513
H 0.9087571 -1.442174 0.38560596
H 0.511826 -1.265052 -1.3428787
H 0.8578376 1.1095269 -1.3072408
H 1.9672316 0.70891476 0.035219
