11

O -1.38445055 -0.61348861 1.52427823
C -0.65127127 -0.23427896 0.65494126
N 0.67235304 -0.42169802 0.54421954
C -2.36195933 0.85425339 -0.63633646
C 1.49388282 0.02623935 -0.57767270
O -1.10573729 0.52247434 -0.47360350
H -2.89390070 0.41603997 0.24516992
H 1.08194052 -0.96784180 1.28765353
H 2.53424718 -0.20296099 -0.33765865
H 1.39455309 1.10523036 -0.72476352
H 1.22034218 -0.48396895 -1.50622761
