12

N 0.13297211 -0.18362224 -1.03051204
C 0.76199948 -1.02773526 -0.26076891
C -0.56069196 0.62684943 -0.14944021
N -1.39460451 1.62678262 -0.65875806
C -0.33480426 0.25799734 1.14507002
O 1.57674242 -2.02018473 -0.65586449
N 0.54101890 -0.83594714 1.04965841
H 1.58951137 -1.99200367 -1.62202309
H -1.14427292 1.83822392 -1.61546124
H 0.94106978 -1.37362285 1.80027271
H -0.70334252 0.61823377 2.09260091
H -1.40559813 2.46502881 -0.09477417
