12

N 1.0666609 -0.8603034 1.6213939
C 0.9653335 0.08832705 -0.693626
C -1.2327007 0.37612355 -0.722936
N -0.9221831 -0.09893956 0.4773182
C 0.44764447 -0.29717138 0.5098978
O -2.5034058 0.5519561 -0.79192364
N -0.14109431 0.5207885 -1.4849656
H 0.6324223 -0.57688 2.4906976
H 1.9742067 0.090842396 -1.0765258
H 2.0624597 -0.68977845 1.646357
H -2.2240677 0.04635641 0.45890135
H -0.12527582 0.84867865 -2.434589
