12

N -0.27244747 -0.014016676 -2.0497453
C -0.15842304 -0.03985869 -0.6535173
C -1.0325373 -0.31379458 0.33464906
N -0.3566519 -0.10004245 1.5499771
C 0.93373334 0.33602014 1.3320879
O 1.7748363 0.66123086 2.1478596
N 1.0510107 0.31510246 -0.055284865
H 0.29303035 -0.72538114 -2.5004864
H -1.2338623 -0.12775609 -2.3412879
H -2.049495 -0.6707788 0.29488933
H -0.76340413 -0.09284963 2.4686425
H 1.8142102 0.7721246 -0.5277839
