14

C -2.3915312 -0.07764399 0.97164553
N -1.350312 0.1395896 -0.013085597
C -0.032859992 0.0375579 0.3455952
O 0.35482082 -0.07817556 1.4931792
N 0.841535 0.10664709 -0.73634386
C 2.2133508 0.0061335494 -0.59194547
N 2.961693 0.11212994 -1.6132196
H -2.0374477 0.29483342 1.9331918
H -2.644728 -1.139861 1.0842147
H -3.2879636 0.47376773 0.67968786
H -1.5933975 -0.025148349 -0.97674656
H 0.51779133 0.3084901 -1.6729938
H 2.514789 -0.16848662 0.44174218
H 3.9342597 0.01016626 -1.3449218
