14

C -0.41666588 -0.54865754 2.0773911
N 0.7258655 -0.4185273 -1.3717321
C 0.022935074 1.3510078 -2.203044
O -0.4280061 1.0208455 -0.22056234
N 0.19047174 -0.8922136 0.8886088
C 0.16861328 -0.09039101 -0.24538004
N -0.34567094 -1.3348664 3.0666416
H -0.15294807 2.3470898 -1.8163968
H 0.6722307 -1.7780542 0.8653368
H -0.83619744 0.8832305 -2.6628044
H 0.9399228 1.2704628 -2.7749863
H 1.215568 -1.2972419 -1.4928119
H -0.837326 -0.9324586 3.8603039
H -0.9187925 0.41977447 2.0294354
