14

C 2.363169 -0.28463387 1.0070735
N 0.93604577 -0.024202317 0.98778313
C -1.9688567 0.21472575 -1.1547234
O 0.82078254 0.079190195 -1.2906715
N -3.2191756 0.342002 -0.96810263
C 0.27049476 0.06074243 -0.20548655
N -1.111984 0.15113847 -0.06985965
H -1.5509554 0.24176666 0.8360156
H 0.40738732 -0.2727957 1.8092453
H -1.4428971 0.13959505 -2.1072805
H 2.8052888 0.1736947 1.8949614
H 2.8047261 0.16006917 0.114349015
H -3.7027793 0.37631992 -1.8599787
H 2.5887542 -1.3576125 1.0066752
