11

O -1.23779932 -1.29815298 1.96212399
N -0.26297626 -1.10382685 1.26878243
C -0.47788334 -0.03422856 0.27896390
C 0.01589873 -0.43617938 -1.12136128
O 1.11253361 0.48626194 -1.07045534
C 0.71843973 0.93367886 0.23395119
H -1.48123099 0.39132942 0.36523341
H -0.68332322 -0.20292920 -1.93295875
H 0.35898397 -1.47288343 -1.20566776
H 1.49222064 0.74228922 0.98557611
H 0.44513656 1.99464097 0.23581208
