11

O 0.15762189 -0.18843472 -1.5999075
N 0.7906558 -0.2897786 1.4792873
C 0.44130445 0.88079685 -0.6870897
C -0.21472088 0.13924399 0.49180382
O 0.4549119 -0.049656447 2.6187532
C -0.48479694 -0.94524384 -0.56519234
H 0.022495035 -1.8986402 -0.38281754
H -1.0756711 0.6056046 0.9781381
H 1.5176185 1.05417 -0.578477
H -0.06280913 1.8092378 -0.9772717
H -1.5466094 -1.1172997 -0.7772266
