9

N -0.13657476 0.01968781 -0.31686449
C 1.09928657 -0.14178314 -0.82852469
N -1.52480565 0.18983487 1.51050068
C -0.34621886 0.04404131 1.06561541
O 0.96466733 -0.12123875 -2.16329217
H 1.85219229 -0.23140557 -2.52310469
H -0.96876854 0.12983250 -0.89550402
H 0.57988080 -0.07426163 1.62804902
H -1.51965891 0.18529259 2.52312433
