9

N -0.1389353 0.08378363 -0.30515677
C -0.33340332 -0.41727853 0.9859332
N -1.4960631 -0.77810895 1.3412769
C 1.0824399 0.46953267 -0.72308326
O 0.935842 0.894746 -1.9871447
H 1.8112632 1.1744117 -2.278224
H 0.5896242 -0.44181693 1.5650755
H -0.97020763 0.13374335 -0.89336795
H -1.48056 -1.1190127 2.2946908
