9

N 1.2660391 -0.15424071 -1.5660698
C 0.21947844 -0.021559646 -0.86309975
N 0.29450384 -0.036487266 0.52176654
C -0.7837891 0.090778984 1.3657265
O -0.7076587 0.07287415 2.5696065
H 1.0400168 -0.123840064 -2.5542138
H -0.8013496 0.11152938 -1.2341541
H 1.2105566 -0.15119901 0.93938696
H -1.7377971 0.21214417 0.82105035
