11

O -1.5714995 0.060042195 1.8021948
C -0.70089436 0.015782967 0.782935
N 0.3980348 0.7128406 0.66355574
C 0.92024904 0.3008455 -0.5402296
O 2.0797026 0.81731296 -0.99706167
C 0.14010577 -0.63962823 -1.1439594
N -0.9250436 -0.81171876 -0.25122288
H -1.2216246 0.70300186 2.4328349
H 2.3728838 1.453542 -0.3309623
H 0.22150913 -1.1834704 -2.0696583
H -1.7134229 -1.4285507 -0.34842616
