11

O -0.05914542 0.35937735 -2.2405615
C 0.025195159 0.27352062 1.271633
N -0.019118004 0.98691094 0.07155199
C -0.020322021 0.124019176 -0.93033564
O 0.03451828 1.1650417 2.2012403
C 0.04675732 -1.0656605 0.9780322
N 0.0189707 -1.1171919 -0.4481584
H 0.08427866 -1.9590542 1.5751096
H -0.114511184 1.3134525 -2.3819985
H 0.015026875 -1.9454356 -1.0223671
H -0.0116503555 1.8650199 0.9258537
