11

O -0.26082268 -2.1385462 0.56032056
C 0.26743123 1.3444885 0.48954228
N -0.008670993 -0.2986538 -0.9908551
C 0.24312776 1.14232 -0.8982027
O 0.37462986 1.8268881 -1.9057826
C -0.09520535 -0.8502392 0.22818486
N 0.05351551 0.10293255 1.1183101
H -1.0293171 -2.5071144 0.10115071
H 0.44943485 2.240687 1.0553317
H 0.013601095 -0.7950499 -1.8682255
H -0.007724045 -0.06771243 2.110226
