10

C -1.2928241 0.18616106 0.3672218
C 1.0615101 -0.017311718 -0.8255694
O 0.5242848 -0.25036225 1.5164137
C 0.10681277 -0.035232376 0.31882414
H 0.7729344 0.7453034 -1.5542561
H 1.0233779 -0.9898969 -1.3265891
H -1.8370204 -0.7118528 0.6659207
H 2.082703 0.15582162 -0.47519207
H -0.6421155 0.15852903 1.7214843
H -1.7996631 0.758841 -0.40825787
