11

O -1.35874794 -1.89200703 0.24272247
C 0.50456087 1.04244455 0.30569807
N -0.03315594 -0.12283609 1.04780003
C 0.22689889 0.85930826 -1.19510768
O 1.82559657 1.33702999 0.61311990
C -0.64284095 -0.77659524 0.15873718
N -0.52019447 -0.22866016 -1.15546553
H -0.08493145 1.91822626 0.61659197
H 2.39010550 0.69893625 0.15675295
H -0.93883956 -0.67209022 -1.96104368
H -1.36845129 -2.16375643 1.17019400
