11

N -0.82282925 1.8433658 0.99141645
C -0.22811899 -0.7041749 -0.08751358
C 0.6048284 0.35048237 -0.22429934
C 0.26043013 1.6385651 0.34619945
N -0.18332592 -2.0924692 -0.5187888
N -1.2665037 -1.3758482 0.2714593
H -0.41480288 -2.3334134 -1.4762931
H 0.367637 -2.7688575 -0.0015727452
H -0.8590094 2.8113031 1.3006
H 1.0145559 2.4210413 0.17310855
H 1.5271385 0.21000528 -0.7743161
