10

N 1.47696915 -0.93186661 -0.40280084
C 0.36950852 -0.18801648 -0.17790368
N -0.91960079 -0.80840920 0.17158741
O -1.17417286 -0.25870236 1.53133049
C -1.35313820 0.54668976 0.40456834
C -0.04632816 1.09024734 -0.10259107
H -2.36281079 0.87731660 0.18292465
H 1.33663552 -1.90718570 -0.61362679
H 2.26885586 -0.48961212 -0.83910403
H 0.40408180 2.06953876 -0.15438459
