10

N -0.94245964 -0.76678056 0.22902091
C -1.3695524 0.610129 0.21353467
N 1.4866952 -0.99075645 -0.1421295
O -1.2845476 -0.007780265 1.4630307
C 0.3781789 -0.21551475 -0.11861943
C -0.021245327 1.0605115 -0.2759974
H 1.3460174 -1.9864733 -0.20651996
H 2.314763 -0.62678087 -0.5835585
H 0.44749275 2.0171669 -0.44821367
H -2.355342 0.9062792 -0.13054772
