9

O 0.033895183 -1.4312316 1.2950652
C 0.0068298294 0.8416608 0.3808884
N 0.2056605 0.20346968 -1.7275547
N 0.21537583 -0.8917062 -0.9851257
N 0.15159476 1.292775 -0.9820213
C 0.08311793 -0.54815674 0.2915968
H -0.92896813 1.3254702 -0.39163703
H 0.112175904 1.5199287 1.2135019
H 0.120318264 -2.3122098 0.9052863
