9

O 0.8138861 -1.6758162 -0.76806664
C 0.2691333 -0.56242245 -0.24782556
N -0.30763203 -0.5126081 0.941656
N -0.6894947 0.7597203 1.0239913
N -0.40893444 1.5264733 -0.0039359364
C 0.21250238 0.7053205 -0.84877056
H 0.6985589 -2.3871279 -0.12530577
H -1.1666178 1.1133549 1.8374063
H 0.57859826 1.0331056 -1.809149
