11

C -0.6726589 0.06288841 0.5848942
C 1.2097138 0.9167581 -0.8606364
C -0.17930283 1.1009283 -0.43581372
C -0.11788766 -1.3341761 0.48028928
O -1.5014144 0.3961198 1.3937091
N 2.3049192 0.7556995 -1.18133
H -0.82908654 1.0294609 -1.3162355
H -0.18510132 -1.6987797 -0.5506167
H -0.6594537 -2.0013623 1.1523081
H 0.9463605 -1.3267388 0.7427889
H -0.31608838 2.0992017 -0.009357075
