11

C -0.7300539 -0.16970497 -2.314049
C -0.16063477 -0.12027528 -0.97005993
C 0.3195469 -0.083624385 0.13163567
C 0.97875476 -0.10030719 1.4446626
O 2.0850387 -0.57284266 1.6118493
N 0.24577789 0.4709056 2.4375284
H 0.008679103 0.1492424 -3.0559924
H -1.6068183 0.47925296 -2.3987656
H -1.0332366 -1.192537 -2.561255
H 0.60982764 0.40291727 3.3764489
H -0.7168812 0.73697335 2.2979968
