11

C -1.0826776 0.6873582 0.078574605
C 0.8607269 -0.8779285 0.8775553
C -0.22193271 1.120466 -1.0828338
C -0.29917637 -0.7528182 -0.08083506
O -0.79425293 -1.6207821 -0.72373617
N -1.8297126 1.4488297 0.61595434
H 1.6935501 -1.3680887 0.36793444
H 1.1669568 0.09116583 1.27143
H -0.5789321 0.90260714 -2.080344
H 0.5400451 1.8841267 -0.9534916
H 0.5454054 -1.5149356 1.709792
