9

O 0.37726542 -0.059890624 1.9744134
C -1.0090449 0.45669064 0.106686614
C -0.9939711 -0.057315458 -1.0393796
C 0.12707031 0.6264902 0.898307
C 1.4025831 -0.48915935 -0.87351257
N 0.9447732 -0.72862864 -1.9494135
H -1.3846313 -0.43909904 -1.9608284
H 0.793081 1.4760827 0.76922864
H -0.25712574 -0.7851703 2.0744984
