11

O -1.1166431 1.2549331 -0.48716512
C -0.6145749 0.7326657 0.71778786
C 0.45984015 -0.30077523 0.45420748
C 0.42540476 -1.1372706 -0.7410482
O 1.2798814 0.0067015328 -0.66882384
H -0.33962414 1.4238979 -1.0387284
H -0.19366509 1.5248702 1.3569369
H -1.4491264 0.27368227 1.2569593
H 1.0116506 -0.65330875 1.3273536
H -0.4089747 -1.0313579 -1.4313828
H 0.9458315 -2.0940382 -0.74609685
