11

O 0.37452707 -0.014086507 -1.4658115
C 0.98518056 0.5273071 -0.28576228
C 0.055828404 -0.30424497 0.6166532
C -0.67669886 -0.6189676 -0.699918
O -0.62959814 0.31033307 1.665541
H -1.6317241 -0.08068275 -0.80474055
H 2.060653 0.3218759 -0.24157917
H -1.079129 1.0951157 1.323008
H -0.8277142 -1.6718727 -0.96399814
H 0.8199735 1.6123234 -0.1954951
H 0.54870164 -1.1771004 1.0521023
