11

O -0.9962748 0.62067 0.95111096
C 0.8780274 -0.6626509 0.36638287
C -0.5998231 -0.43436992 0.06977814
C -0.51886374 0.58181554 -0.9925159
O 1.281972 0.66656893 0.42883393
H 0.38298866 0.7993145 -1.5490361
H 1.3334154 -1.2258154 -0.46595967
H 1.0486007 -1.2223129 1.3008647
H -0.03185635 0.98582053 1.0992823
H -1.3464576 -1.2290825 0.0270067
H -1.4317284 1.1200421 -1.2357479
