11

N 1.0768625 -0.031778544 1.5223464
C -0.9056605 -0.59625196 0.034001004
C -1.1045595 -0.24577843 -1.3202087
N -0.12863478 0.5009709 -1.797797
C 0.29797548 -0.00862418 0.36199445
N 0.7196937 0.6343664 -0.7551008
H -1.5469798 -1.1807673 0.6774807
H -1.9384674 -0.51031363 -1.9575397
H 1.3105141 0.8910194 1.8688357
H 0.62327635 -0.56450474 2.2552283
H 1.5959802 1.1116621 -0.8892407
