12

N -0.96149385 1.3056263 0.027703166
C -0.0072381306 -0.6122976 0.85903066
C 0.3862168 0.8706057 0.3609164
N 1.2619079 -0.6356297 -1.4790015
C 0.47893694 -0.2165241 -0.5152352
N -1.3375063 -0.6087945 1.2405787
C -1.8037304 0.48220488 0.659882
H 1.1433314 1.5867306 0.68503904
H -2.8715951 0.70155597 0.65891504
H 0.68416137 -1.308783 1.3368944
H 1.9016596 -0.0108467 -1.9526327
H 1.1253496 -1.5538473 -1.88209
