12

N 0.8575165 -1.7403443 0.5666703
C 0.2669026 -0.54531455 0.16880147
C 0.9302644 0.3933066 -0.6259839
N 0.34730455 1.5083934 -1.061974
C -0.91851884 1.6969092 -0.6992685
N -1.6506946 0.8819762 0.055580426
C -1.0528955 -0.2265265 0.48322293
H 1.8657508 -1.7386515 0.60783654
H 0.44102156 -2.1758528 1.3785822
H 1.967231 0.2374364 -0.92236
H -1.4020867 2.603246 -1.0532868
H -1.6517956 -0.8945787 1.1021796
