10

O 0.09250906 -1.87133951 -0.25100256
C 0.24395998 -0.70348970 -0.05973512
C 1.73403793 1.04097143 0.34088087
O 1.57305459 -0.25272240 0.13872136
C -0.87159737 0.31089516 -0.05328461
O -2.11675874 -0.32192462 -0.09176207
H -0.79986753 0.93375655 0.84599221
H 2.83840108 1.10103078 0.46573174
H -1.97966086 -1.22007793 -0.42275586
H -0.71407816 0.98290022 -0.91278619
