12

N -0.2909282 -0.8337908 1.7686918
C 0.09909594 0.29346418 1.085282
O 0.84862584 1.135151 1.5296973
N -0.49781722 0.37246436 -0.18561548
C 0.2696134 0.9360533 -1.2722372
C -0.07053499 -0.5119027 -1.2571365
H -1.1409533 -1.2895434 1.4763407
H -0.10144002 -0.8213739 2.7594125
H -0.27565897 1.6115052 -1.925027
H 1.2961683 1.2170874 -1.0500205
H -0.86747235 -0.8964773 -1.8900716
H 0.7313014 -1.2126372 -1.0393165
