11

O -0.8180587 2.1582832 -0.7005859
C -0.42218375 1.0843252 -0.31017634
C 0.34588867 0.0014334132 -1.0773327
C 0.5420147 -1.084798 -0.057056163
C -0.014653471 -0.6941437 1.0906622
N -0.586571 0.58198726 0.9636318
H 1.2844621 0.4184988 -1.4595635
H -0.23846422 -0.31344226 -1.9483032
H 1.0508037 -2.0232139 -0.23209082
H -0.07014831 -1.2105564 2.0404673
H -1.0730895 1.0816265 1.6903477
