11

O -0.066127 -1.3218751 -1.8053138
C -0.029513983 0.5715824 1.231875
C 0.30193323 1.4182663 0.24724168
C 0.018251298 -0.4056886 -0.841642
C -0.2617523 -0.76751006 0.5866583
N 0.3360306 0.82076365 -1.0395021
H 0.4166222 -1.5527214 0.93687105
H -0.1206981 0.7820173 2.286478
H -1.2847333 -1.1430751 0.70775795
H 0.5354336 2.473487 0.32683435
H 0.15455379 -0.875246 -2.6372585
