11

O -0.6889946 1.96749 1.0220145
C 0.6970689 -0.16461305 -1.1684524
C -0.34371632 0.8552999 0.50247616
C -0.4464612 -0.61193895 0.8054155
C 0.2938924 -1.1841359 -0.38785255
N 0.29969102 1.0723895 -0.62003803
H 0.017567966 -0.8390875 1.7711183
H 0.4535865 -2.2380164 -0.565661
H 1.2495706 -0.19332771 -2.0986757
H -1.4937998 -0.9264876 0.86336964
H -0.038405582 2.2624278 -0.12371404
