10

C 0.017195437 1.0539577 0.6331678
C -0.31933814 -0.1345279 -0.13308592
C 1.7326761 -1.6882148 -0.7747627
C 0.81679004 -0.9699502 -0.4746113
N -1.7683856 2.5539694 1.3148855
N -0.9381016 1.8592198 0.99819946
N -1.5263649 -0.39960888 -0.4639629
H 1.015032 1.326386 0.94100404
H -1.5711968 -1.2698405 -0.99504596
H 2.5416934 -2.3313909 -1.0457882
