10

C 2.1494699 -0.17921895 -1.3019605
C -0.10474346 -0.1527953 0.07888267
C -0.7194814 1.1156552 0.36115286
C 1.1255871 -0.16018136 -0.6750367
N -0.7064275 -1.2072173 0.5224834
N -1.826427 0.869591 1.0508542
N -2.3294137 -0.11382438 1.4233847
H 3.0610056 -0.19328694 -1.8594096
H -0.40121818 2.1095812 0.09678807
H -0.24835147 -2.0883033 0.30286077
