10

C 0.38280267 2.0532517 1.502051
C 0.18033826 1.0912726 0.806561
C -0.059403013 -0.04271145 -0.019663235
C -1.2047421 -0.72307783 -0.37466952
N -0.8678965 -1.7411485 -1.20299
N 0.41779727 -1.7372237 -1.3842144
N 0.9148725 -0.72393256 -0.67882675
H 0.5551018 2.9071312 2.12285
H -2.2266774 -0.53564656 -0.08443198
H 1.9078064 -0.54791456 -0.6866659
