10

C -0.87660101 1.85135767 1.50217791
C 1.10408658 -0.35709926 -0.40681316
C -0.30543072 -0.18884207 -0.09400631
C -0.59635018 0.93157846 0.78085424
N -1.19588154 -0.97661994 -0.56640918
N 1.76945733 -2.16941256 -1.88189825
N 1.46236154 -1.32823435 -1.19600469
H 1.89660017 0.27649510 -0.03920123
H -2.12474497 -0.70580438 -0.24201153
H -1.13349731 2.66658167 2.14331240
