12

C 1.0741383 0.19663835 0.78084016
C -0.31794122 0.59248376 0.35060096
N -1.0161551 1.54921 0.8067547
N -0.9071577 -0.17380449 -0.6663525
C -0.39430884 -1.2508074 -1.3394163
O -0.99596137 -1.8449912 -2.2056441
H 1.4166728 0.86445606 1.5751946
H 1.7824421 0.26300144 -0.05208468
H 1.0925226 -0.82939357 1.1636555
H -0.5151952 2.0449562 1.5384817
H -1.8409593 0.1206568 -0.9302984
H 0.62190294 -1.532406 -1.021732
