12

N -0.3337241 0.2957017 -1.8679831
C -0.17900833 0.8707756 -0.7273472
C -0.24489515 -1.0799098 -1.5527202
N -0.03632311 -1.4130483 -0.3251554
C 1.4356308 -0.110594526 1.0155863
N -0.8044369 0.0497226 1.5078332
C 0.07710208 -0.12910546 0.36535987
H 2.0834036 0.6655959 0.5480031
H -0.18578477 1.9519703 -0.5991961
H -0.35461336 -1.8098508 -2.3496237
H -0.3567983 -0.3008989 2.3511944
H -1.1005524 1.0096416 1.6340487
