12

N -0.54799676 -1.2184739 -1.0044615
C 0.3388074 1.1274543 -0.40547594
C 1.699205 0.35335594 1.0371885
N 0.9191624 -0.6575546 0.9517918
C -0.044707336 -0.25543323 -0.023345267
N 1.3987252 1.484615 0.22668324
C -1.4536625 -0.729748 0.016997807
H -0.1838918 1.7635647 -1.113375
H -1.7228702 -1.4593036 0.77510303
H -0.7282219 -0.7712069 -1.8984263
H 2.56308 0.3861554 1.6929872
H -2.2376294 -0.023425082 -0.25566784
