12

N -0.45457128 -0.45380205 1.9166971
C -0.13945222 -0.13439207 0.5998714
C -0.928071 0.7242447 -0.17463715
N -0.5953633 1.0818346 -1.4118534
C 0.54026467 0.5797364 -1.8963438
N 1.3664745 -0.24506775 -1.2594626
C 1.0217142 -0.5961871 -0.022417316
H -1.431141 -0.3818007 2.1620488
H -0.037910823 -1.3050839 2.2677255
H -1.85517 1.1334583 0.22472507
H 0.81699586 0.8695732 -2.9066772
H 1.6962306 -1.2725134 0.5003238
