11

O -1.4716512 1.6300647 1.2716848
C -0.751477 0.8416955 0.6933279
N -0.75782824 0.5600027 -0.6512285
C 0.22220272 -0.42740673 -1.0349352
C 0.8738234 -0.7460049 0.28670716
C 0.32331628 -0.026955111 1.2635242
H -1.3958997 1.0133603 -1.283455
H 0.9499655 -0.033467885 -1.754961
H -0.23844336 -1.318574 -1.4802122
H 1.6771525 -1.4681767 0.37201557
H 0.56883895 -0.024537863 2.3175323
