13

C 0.58331263 -1.5855122 -1.1668597
N 0.22834204 -0.6434243 -0.12652081
C -0.051783998 0.6610316 -0.3795023
O -0.07208732 1.1697668 -1.484094
C -0.3352485 1.4767 0.8780622
O -0.5639435 0.6949926 2.0379102
H -0.11318739 -2.4291239 -1.1830887
H 0.5312459 -1.0565853 -2.1196055
H 1.6013678 -1.9617918 -1.021823
H 0.26893586 -0.91371435 0.8463657
H -1.1671934 2.1556451 0.6522697
H 0.5492747 2.09095 1.0806198
H -1.4590349 0.34106573 1.9862663
