17

C -0.06954516 0.023377625 -0.1327032
N 0.26968697 0.85978323 -1.0337793
C 1.683529 1.1285499 -1.2045164
O -1.3521928 -0.32614252 0.055402987
N 0.7608155 -0.6602876 0.73440826
C -2.2843432 0.26872167 -0.84113055
C 0.2629472 -1.3331565 1.9192487
H -2.054127 0.0038797064 -1.8765795
H 1.8055894 1.8391274 -2.0270178
H 1.6836666 -0.26818106 0.8075025
H -3.2585192 -0.13303906 -0.5527955
H -0.54217625 -2.0169451 1.6435726
H 2.2660072 0.22899336 -1.457978
H -2.2761946 1.3576341 -0.7500337
H -0.11732949 -0.641057 2.681246
H 2.1420076 1.5875828 -0.3128856
H 1.0801785 -1.9188408 2.348039
