10

O 0.8182698 0.93442565 -1.7127134
C -0.018572846 0.8140619 -0.6044991
C 0.20829934 -0.4886746 0.122412324
O 1.0247056 -1.2992915 -0.25791126
C -0.6157721 -0.78899723 1.3645726
O -1.4418908 -0.025650358 1.7893252
H 1.3481059 0.124985546 -1.7488401
H 0.13968176 1.6359881 0.11147919
H -1.079751 0.8608194 -0.8946827
H -0.3830755 -1.7676669 1.8308568
