10

O -0.86500305 -1.330209 1.4648821
C 0.30944774 0.44581088 0.116867915
C 0.8676126 0.6217499 -1.2542542
O -1.0833327 0.7301596 0.2988159
C -0.71200883 -0.60775894 0.31732836
O 0.2548782 0.3564935 -2.2621043
H 1.9175382 0.9750554 -1.2918969
H 0.94387734 0.7734474 0.9434464
H -0.61529464 -0.777358 2.2186606
H -1.0177146 -1.1873906 -0.551746
