11

N -1.80452 0.38288835 -0.42431837
C -0.5033815 0.39379108 -0.011945731
N 1.3647295 1.054299 0.92554146
N 0.04472156 1.4151404 0.5624595
C 1.6017087 -0.15328293 0.5666126
C 0.41914436 -0.78754 -0.09578344
H -2.250463 1.289586 -0.4352195
H 0.02588325 -1.6449854 0.46133
H -2.0720725 -0.23057128 -1.1733934
H 0.61283237 -1.1008737 -1.1263059
H 2.561417 -0.61845154 0.7510228
