12

N 1.1938337 -0.25635928 -1.6361511
C -0.3300031 1.0770228 0.13402835
N -1.0630157 0.45127127 -0.9925654
C 0.14701848 -0.1134564 -0.74076587
C -0.37588695 0.52509266 1.4698482
C -0.5263041 -0.8275554 1.3120401
N -0.4126339 -1.2125795 0.035694994
H -0.33458346 1.0964673 2.3859525
H -0.8691084 -1.544846 2.0527081
H -0.14602044 2.133112 -0.04617885
H 0.8786784 -0.33546233 -2.5936494
H 1.8380255 -0.9927069 -1.3809613
