12

N 2.1695356 0.39206728 -0.69472843
C 0.88757217 0.1640123 -0.2832594
N 0.70458156 -0.8432939 0.58516544
C -0.54161775 -1.0228459 1.0057882
C -1.6106719 -0.23873886 0.5872332
C -1.2926803 0.7644594 -0.32292238
N -0.062418442 0.9804541 -0.76918876
H 2.2925444 0.96729815 -1.5121564
H 2.83326 -0.34678525 -0.52941394
H -0.6921279 -1.8388168 1.7103024
H -2.621343 -0.402192 0.9398013
H -2.0666344 1.4243813 -0.7166211
