11

C 1.3800901 0.0062881536 0.021785328
N 0.2408711 -0.6266423 -0.6316795
C -0.99618703 -0.5007759 0.11175241
C -1.4283066 0.9026268 0.3351929
N -1.7112763 2.014964 0.46510983
H 1.2446593 1.0813187 0.21328953
H 2.267072 -0.13017279 -0.60459447
H 1.5663813 -0.49219584 0.97958094
H 0.1137327 -0.2421992 -1.5614551
H -1.7963802 -1.0271658 -0.41742176
H -0.88065606 -0.9860459 1.0884398
