11

C -0.91084214 0.74948158 -0.79371298
C 0.04253452 -1.61041004 0.66722254
O 1.38693285 1.41228366 -0.66024505
C 0.82781137 -0.37996390 0.77886833
C 0.50896589 0.67266561 -0.29497604
N -0.58667292 -2.57055740 0.55695143
H -1.14225001 -0.14576406 -1.38158517
H -1.61292674 0.76740396 0.04680493
H -1.04033380 1.63902441 -1.41045563
H 0.62991690 0.07520443 1.75607506
H 1.89686424 -0.60936819 0.73505246
