11

C -1.2344637 -0.31717247 -0.46759498
C 1.2393669 0.3031153 -0.45183071
O -0.59386337 1.6662337 0.35397646
C -0.25170708 -0.57867545 1.3530881
C -0.16648166 0.47465053 0.13695398
N -0.3773516 -1.2972434 2.251087
H -2.2285717 -0.09978393 -0.087918274
H 1.4921763 -0.74855435 -0.6222074
H 1.2750025 0.8544674 -1.3954467
H -1.1174402 -1.0004895 -1.3087884
H 1.9633338 0.7434524 0.23868069
