11

C -0.8227014 0.74649864 -0.83571976
C 0.50021386 0.62582517 -0.12954739
O 0.49102724 0.68532765 1.289623
C 0.8688077 -0.54258347 0.69076186
C -0.054556105 -1.6559355 0.8542013
N -0.7701294 -2.5554206 0.9643911
H -1.1551579 1.7878413 -0.8330413
H -0.72295004 0.42141014 -1.8766065
H -1.5873108 0.13734865 -0.34682825
H 1.3357494 1.1638663 -0.58033895
H 1.9170076 -0.8141782 0.80310476
