14

C 1.13508232 -0.60198136 -1.79176393
N 1.52459319 -0.00772719 -0.52910390
C 0.60131322 0.28998987 0.29925188
O 0.91504597 0.87911611 1.46957224
N -0.75204548 0.13105181 0.15932602
C -1.66963278 0.25509193 1.27597211
H 2.03235328 -0.77407198 -2.39152071
H 1.87791559 0.98184859 1.43263952
H 0.46420956 0.04655481 -2.37546690
H 0.63752398 -1.57700236 -1.66341013
H -1.55626453 -0.55074782 2.01244136
H -2.68752239 0.24006257 0.88225555
H -1.50780569 1.20908403 1.78159038
H -1.01476616 -0.52126912 -0.56178317
