12

N 0.17196944 -0.86784333 1.65316234
C -0.98682333 -0.22380670 1.78457419
C -0.93804721 0.66194159 -0.29744011
N -1.57038396 0.54021196 0.86553869
C 0.27605220 0.02667811 -0.56605349
N 0.89793275 0.10173057 -1.80027768
C 0.79109379 -0.73646466 0.48561710
H -1.50313029 -0.33350326 2.73564484
H 0.64785937 0.89289842 -2.37321025
H -1.41478611 1.28897443 -1.05072714
H 1.88858021 -0.09028115 -1.80846360
H 1.73968310 -1.26053603 0.37163531
