11

C 0.7504724 0.25787863 0.92502
N -1.1897128 -0.57425916 0.21610492
C 0.08211825 1.0580466 -1.8856856
N -0.2976674 0.44504324 0.09133761
C -0.61770046 -1.312815 1.1290909
N 0.5829329 -0.8498379 1.6101311
H 1.1504612 0.7746732 -1.8172696
H 1.5835583 0.9439336 0.9948974
H -0.44084623 0.15508206 -2.2470763
H -0.5391421 1.3343093 -0.4997711
H -1.0644741 -2.232055 1.4832206
