11

O -2.42677864 0.01593840 -0.09451000
C 1.24702615 0.04311529 0.55753368
C -1.19527446 0.35395292 0.22436897
N -1.77403799 0.93210661 1.16540855
C 0.10320381 0.07061407 -0.44550290
O 0.02356888 -1.17560263 -1.08985347
H 2.18429606 -0.14889936 0.02870426
H 1.32317883 0.99984537 1.07952057
H 1.08831050 -0.75494072 1.28799400
H 0.25050886 0.89309964 -1.16399101
H -0.82400176 -1.22922920 -1.54967258
