10

O 2.0058784 1.1491295 0.4323752
C 0.96045744 0.6007131 0.20428865
C 0.43261543 -0.84716856 0.23262772
C -0.9138719 -0.24429409 -0.23623067
N -0.2664945 1.0634861 -0.19932516
H 0.9223252 -1.5166814 -0.47715607
H 0.42639387 -1.2962408 1.2276357
H -1.23477 -0.5527864 -1.2353488
H -1.7426991 -0.3497389 0.46898392
H -0.58983475 1.9935814 -0.41785023
