12

N -0.5089425 1.2326435 -0.669381
C 0.18012543 -0.61288804 0.5701055
C -0.6490544 0.4664574 0.45451024
N 1.2304095 -0.095602475 -1.5024861
C 1.172448 -0.9521624 -0.4308949
N 0.18368064 -1.4424758 1.6869926
C 0.4212813 0.9240852 -1.5947924
H 0.7396751 -2.2645159 1.4887046
H -0.71305364 -1.6595539 2.0963087
H 0.45944297 1.5871882 -2.4561055
H -1.4024789 0.78917056 1.1690859
H -1.1135335 2.0276537 -0.81204814
