12

N -0.45507526 -0.453183 1.9143732
C -0.14003861 -0.13423397 0.59927505
C -0.92752534 0.7235408 -0.1748352
N -0.5968175 1.080942 -1.4102387
C 0.538574 0.5803217 -1.8928837
N 1.3693746 -0.24804123 -1.2574004
C 1.0243852 -0.59765536 -0.02310907
H -1.4325413 -0.38233566 2.1585364
H -0.039958626 -1.3046721 2.2632742
H -1.8546051 1.1349796 0.22284335
H 0.8165799 0.8738878 -2.903042
H 1.6976483 -1.2735506 0.5032071
