12

N 0.29768953 0.5108089 1.3699589
C 0.97953135 0.3523708 0.15763026
C 0.23406175 -0.1657665 -0.85284173
N 0.41244283 -0.46461523 -2.151804
C -1.167021 -0.54059803 -0.660177
N -1.7394962 -0.33127218 0.5427279
C -0.9910311 0.17548682 1.5089709
H 0.7944053 0.8758067 2.1660283
H -0.75396144 -0.8849182 -2.150911
H 1.3329769 -0.53864634 -2.5622988
H -1.4156314 0.3482254 2.4944856
H 2.016034 0.6631182 0.13823046
