12

N -0.89841992 -1.13969673 0.86432318
C 0.41246947 -0.86265903 1.52925607
O 1.20215659 1.47775958 -0.86752216
N -0.76059986 0.73309415 -1.76102721
C 0.14059117 0.64324181 -0.69655461
C 0.01500162 -0.17639044 0.32977746
H -0.83155225 -2.00262939 0.32804109
H 0.32419169 -0.39361663 2.50728736
H -0.91745934 1.69018982 -2.05058100
H 1.77028165 1.39936348 -0.08817212
H -1.63371524 0.26623267 -1.55894578
H 1.17705452 -1.63488925 1.46411737
