10

N 0.5913708 1.6632133 -0.58237493
C -1.2579552 -1.1937125 0.379506
C 0.40209532 0.3846347 -0.19924533
O -0.64681184 -1.928869 1.1323013
C 1.3409821 -0.5582549 0.14680173
N -0.7752188 -0.2141233 -0.43593976
H 1.3158295 -0.9223414 1.1777444
H -2.3530521 -1.2797239 0.27220386
H -0.14768358 2.0651557 -1.1380943
H 1.5304435 1.9840213 -0.7529029
