10

N -0.5641114 1.1659517 -1.28663
C -0.1548306 0.24965474 -0.32513323
C 0.6848317 -0.8122229 -0.39447546
O 0.6877479 -1.4122498 0.84661514
C -0.14949824 -0.6739774 1.5746533
N -0.6829006 0.32449162 0.9523622
H 0.14515203 1.4138923 -1.9609377
H -0.96978164 1.9883649 -0.8616584
H 1.3046675 -1.2695134 -1.1485682
H -0.3012765 -0.97439146 2.6037722
