10

N -0.7212405 -1.4882921 -0.39665624
C 1.1747499 0.12028217 -0.05227161
C -0.11531098 -0.27762508 -0.10348256
O 1.2201335 1.4063721 0.42014313
C -0.051499236 1.8645885 0.5629963
N -0.8963209 0.83369 0.24136235
H 2.1139114 -0.3439913 -0.31741136
H -1.6529726 -1.3713561 -0.7686011
H -0.9052584 1.3665936 1.3812237
H -0.16619217 -2.1102617 -0.9673025
