12

C -0.2087468 -0.17392576 0.5720411
C 0.6456515 -0.25062802 -0.6434801
C -0.4976551 1.1098135 1.2300303
O 1.2127701 0.8857534 -0.8142113
N 0.07109586 -0.9538204 -1.7874405
H -0.43372563 -1.0982666 1.1125346
H 0.411837 -1.8973432 -1.916776
H 1.3566793 -1.0079821 -0.14208062
H 0.294515 1.3586924 1.948477
H -1.4341149 1.0427947 1.7975156
H -0.9370943 -0.9172156 -1.8332914
H -0.48121223 1.902128 0.47668156
