12

C -0.16651415 0.56054382 0.02745117
C 0.56502151 -0.68240541 -0.20087844
C -1.66086830 0.61571174 0.19605242
O 0.32629884 0.22546601 -1.27442964
N 1.88473267 -0.89210842 0.28082790
H 2.42047841 -1.47165520 -0.35783183
H 2.37251439 -0.01243364 0.39644958
H -1.92573500 0.66188955 1.25848798
H -0.00289713 -1.61055268 -0.27886158
H 0.39101189 1.37626628 0.49663217
H -2.12891490 -0.27004910 -0.24407350
H -2.07512880 1.49932694 -0.29982619
