10

N -0.46243674 -3.4640727 0.4301756
C -0.33267328 -2.3275592 0.2954203
C -0.43963578 1.2226365 -0.017735276
N 1.1550746 -0.42480382 -0.21592431
C 0.9828194 0.8414017 -0.2962431
C -0.14452393 -0.90415287 0.11809545
N -1.0850023 -0.05576248 0.2443842
H -0.5455815 1.8780577 0.85322225
H 1.7949635 1.518738 -0.5433617
H -0.92300385 1.7155172 -0.86803347
