10

N 0.24521717 -0.27258346 3.50203730
C 0.16756164 -0.16106613 2.35827422
C 0.06594700 -0.04734479 0.91963883
N 0.06658332 1.06837018 0.30694447
C -0.05027805 0.69655879 -1.09577012
C -0.11008909 -0.80039882 -1.05303983
N -0.04198394 -1.24005627 0.14756934
H -0.95130306 1.14692206 -1.52578170
H -0.20389731 -1.46619617 -1.90588449
H 0.81224232 1.07579454 -1.65398811
