10

N 0.86699885 -0.60255575 -0.11256751
C 0.700232 0.93221843 -1.9749159
C -0.90461725 0.23169553 1.0658122
N 1.0405717 1.3181583 -3.0081253
C 0.050062202 -0.7909094 1.0653517
C 0.270124 0.44986543 -0.6897884
N -0.7545563 0.99609894 -0.017892867
H 0.0053926813 -1.5175135 0.008346852
H -1.6656268 0.43159226 1.8093897
H 0.39141887 -1.4486501 1.8543895
