11

C -0.6471262 -0.8359606 -1.4757931
C -1.4980469 -0.2986639 0.8319123
C 0.91849583 0.15913755 0.063209794
C -0.48164746 -0.32522163 -0.28210053
O 1.2929142 0.18654288 1.2162259
N 1.6812134 0.54455537 -0.9906646
H 2.6273544 0.83880305 -0.80253774
H -1.7306266 0.7361878 1.102215
H 1.3103771 0.58679885 -1.9233246
H -2.4188478 -0.8115716 0.55293965
H -1.0540601 -0.78060794 1.7079179
