11

C 0.521973 -0.35424298 -0.15991338
C 1.155939 0.36613125 0.9666455
N -1.4790283 -1.7308784 0.27828354
C -0.8579972 -0.7964199 -0.19413488
N -1.1972607 0.3916308 -1.0641669
H 0.4105923 0.82427275 1.6223063
H -1.8223864 1.0703044 -0.6335031
H 1.163249 -0.6758188 -0.98132074
H -1.4866014 0.16202542 -2.0098422
H 1.7175037 -0.3728971 1.5548414
H 1.8740172 1.1158925 0.6208042
