10

C -0.9898067 0.38625398 -1.3113916
O -0.5405128 -0.3952097 -0.19290425
C 0.52408755 0.09489776 0.433961
O 1.115358 1.1071645 0.14578421
C 0.96280223 -0.76580733 1.6137714
O 0.40902537 -1.7780236 1.9431127
H -1.8489568 -0.15519062 -1.7055157
H -1.2809867 1.388855 -0.9864171
H -0.2011641 0.46220392 -2.0656905
H 1.8501539 -0.3451437 2.12529
