10

C 0.19937062 0.8447228 1.4534657
O -1.5497943 0.6279554 -0.11535434
C 0.39702514 -0.62563306 -0.6949992
O 1.3162848 0.55869323 1.8003922
C -0.41844112 0.30223536 0.17485817
O -0.3146434 -1.0298492 -1.8210113
H -1.1845742 -0.6066784 -1.7702931
H -0.47155446 1.5173384 2.0222473
H 0.7009589 -1.4868553 -0.07891551
H 1.3253682 -0.101929106 -0.97038996
