10

C -0.29972698 -0.77188238 -0.58858377
O -1.28510758 -0.62350748 -1.56057966
C -0.04100017 0.52416837 0.14346114
O -0.64213090 1.54357342 -0.12060714
C 1.00624577 0.55073433 1.24500160
O 1.63614920 -0.42647417 1.55797671
H -1.57394408 0.30061131 -1.52890329
H 1.12741386 1.54309152 1.72103755
H 0.65244196 -1.10846665 -1.02677559
H -0.58034111 -1.53184808 0.15797261
