12

N 0.49968413 0.51312655 -1.2089808
C 0.82437974 0.3430435 0.07377627
N 1.9410819 0.8795578 0.6302379
C -1.3434757 -0.32321143 0.68778545
C -0.3828343 -0.49959365 -1.1478428
C -1.7311113 -0.26942158 -0.59864163
N 0.038777933 -0.46266773 0.8888074
H -1.9820973 -0.3063053 1.5712156
H 2.1526062 0.548403 1.559126
H -0.064728215 -1.5279986 -1.390591
H 2.7078876 1.1172655 0.023118135
H -2.660171 -0.012197945 -1.0880105
