12

N 0.42349717 1.18458564 -0.70205488
C 1.47960874 0.48033105 -0.37498966
N -0.37152546 -0.83939703 0.05337446
C 0.30770292 -0.77770131 1.38020225
C 1.13478715 -0.84525552 0.15695802
C -0.65157022 0.39531751 -0.41691754
N -1.92470179 0.80719796 -0.59957673
H 2.47789197 0.88814426 -0.48051302
H 1.65634528 -1.73005565 -0.20620739
H 0.16138805 -1.67879885 1.97727655
H -2.63120262 0.31514214 -0.07290406
H -2.06222096 1.80048960 -0.71464791
