12

N -0.74438518 -0.18372880 -0.58523855
C 0.28083058 -0.90185700 -1.11097063
N -0.82597556 1.27138478 1.37703598
C -0.11116900 0.35902312 0.45083027
O 0.12080076 -1.66051085 -2.22352441
C 1.43909486 -0.73887707 -0.36729820
N 1.15193990 0.11242144 0.67690546
H -1.19010682 2.09367683 0.89312839
H -1.60917335 0.80412332 1.83642701
H -0.13688653 1.55477730 2.07634610
H 2.42074989 -1.16760810 -0.51773753
H -0.79571964 -1.54282455 -2.50590396
