12

N -0.91180164 0.2813042 -0.14090915
C 0.16598825 -0.059808712 0.559799
N 1.2801067 -0.39749962 -0.03355705
C 0.9155374 -0.27312332 -1.3561107
O -1.1619519 0.374699 -2.4950788
C -0.40851352 0.13515665 -1.3933115
N 0.13246514 -0.056779023 2.0430644
H 1.5973634 -0.4759413 -2.1710138
H 1.0650414 -0.3468543 2.343643
H -2.029077 0.6590288 -2.1775122
H -0.081399515 0.8697836 2.4154432
H -0.5637585 -0.7099661 2.405544
