12

N -2.1308026 0.56105727 -0.07627015
C -0.7868281 0.19565846 -0.04048943
N 0.15215541 0.81739247 0.63709205
C 1.3089987 0.16156259 0.30415642
O 2.4948158 0.5435288 0.8248539
C 1.0850931 -0.86731535 -0.5557024
N -0.2999634 -0.8352305 -0.767008
H -2.2910392 1.3156337 0.58006126
H -2.7594495 -0.20785572 0.12105209
H 2.3042629 1.2767731 1.4262042
H 1.7338454 -1.6072146 -0.99380624
H -0.8110886 -1.3539898 -1.4601438
