12

N 0.31434363 -0.20827791 -1.0760843
C -0.44170645 0.9300348 -1.0152946
N -0.32224524 0.23110132 1.064123
C 0.32542124 -0.53888106 0.19583409
O -0.73008436 1.6293966 -2.1348493
C -0.84897923 1.2300174 0.27703837
N 0.8712849 -1.5757452 1.0534552
H 0.50962627 -2.5106184 0.87739253
H -0.32971478 1.1436402 -2.8683298
H -1.4510888 2.0435534 0.6505034
H 0.21777983 -0.7760451 1.8526834
H 1.885363 -1.598176 1.1235278
