10

C -0.9909626 0.38365102 -1.3111129
O -0.54124695 -0.3943727 -0.19138607
C 0.5235353 0.094997235 0.43321913
O 1.1145177 1.1057341 0.14308813
C 0.9641016 -0.764563 1.6130904
O 0.40947843 -1.7749413 1.9487277
H -1.8538545 -0.152971 -1.7045993
H -1.2747276 1.3891224 -0.98679656
H -0.20350172 0.4571746 -2.064264
H 1.8526604 -0.3438313 2.1200333
