10

C 0.35587308 0.4302165 -1.0561905
O -0.7763875 -0.18191019 -1.2454145
C -1.5201502 -0.8482673 -0.19429436
O 2.2541926 0.9303154 1.7351755
C 1.8433646 0.947127 0.61673814
O 0.6654252 0.3196767 0.27899647
H -1.8064489 -0.13052952 0.5781853
H -0.91884637 -1.6503556 0.2397717
H 2.3032312 1.4331445 -0.2589351
H -2.400254 -1.2494174 -0.69403267
