10

C -0.9919736 0.38486975 -1.3125405
O -0.5387622 -0.39301097 -0.19475913
C 0.5224661 0.09377136 0.4339804
O 1.114364 1.1062151 0.14926933
C 0.9654081 -0.76724184 1.6147883
O 0.40969658 -1.7772853 1.9474815
H -1.8537488 -0.15341459 -1.7061031
H -1.2771001 1.3888153 -0.9871211
H -0.20425615 0.46119717 -2.067212
H 1.853906 -0.34391618 2.1222162
