11

N 0.16815457 0.0023221448 1.281208
C -0.7790473 -1.3429934 -0.49899557
C 0.7915665 1.1641519 1.3004606
N -0.09121503 -0.15728532 -0.033285983
C 0.3782167 0.8956084 -0.7214874
N 0.94876575 1.7606243 0.094025314
H -1.7684429 -1.3948698 -0.039783668
H 1.1484051 1.599728 2.2241354
H -0.87998027 -1.2897055 -1.5845234
H 0.28597084 0.99209887 -1.7963232
H -0.2023939 -2.2296796 -0.22543007
