11

O -1.3965294 -0.81851137 0.121043414
C -0.40466815 0.50811076 1.4371675
C 1.0429738 -0.67185724 -0.55443645
C -0.30696017 -0.7870949 1.0267731
N 0.28119516 0.44697103 -0.8416678
C -0.9663296 0.5339596 -0.008233921
N 0.8452117 -1.3874748 0.5145453
H -1.6940862 1.2368612 -0.41644633
H 0.2707986 0.78504884 -1.792878
H 1.8559875 -0.91171026 -1.2370265
H 0.47240648 1.065697 1.7511597
