11

N 0.49991086 -0.9774778 -0.46841663
C -0.002341398 0.3086369 -1.0278028
O 0.883983 0.6275455 1.0701079
C 0.29209659 -0.6573526 0.9393746
C -0.30903992 0.9564841 0.33872512
O -1.024377 -0.08126071 1.0168134
H 0.78063387 0.83907807 -1.5737014
H -0.69188106 1.9700935 0.44030502
H -0.10046198 -1.748332 -0.74601555
H 0.55992156 -1.4215246 1.6682208
H -0.8884444 0.1841099 -1.6576103
