11

N -0.028170139 0.013271455 1.1648972
C -0.59799534 -0.8579866 0.1074853
O -0.38923198 1.3318788 -0.5913325
C 0.37710938 1.0914675 0.45355657
C 0.019708902 -0.090253375 -1.097497
O 1.3219025 0.01869112 -0.98275274
H -0.21538982 -1.8754094 0.19754009
H 0.9766018 1.877162 0.9116081
H -1.6896629 -0.8419749 0.13401793
H 0.663057 -0.39375624 1.7836049
H -0.4379293 -0.2730902 -2.0811281
