11

N -0.42095977 -1.6496791 -1.0680003
C -0.23510487 -0.48799887 -0.35832718
C 1.0119201 -0.13185166 0.20087384
N 1.162503 1.0158955 0.8241243
C 0.06302195 1.7894264 0.8732005
N -1.1210941 1.4944284 0.37228736
N -1.2784519 0.32585585 -0.25040346
H 0.17924008 -2.4319313 -0.86362064
H -1.3882715 -1.8845944 -1.2363008
H 1.8768985 -0.7892466 0.13251258
H 0.15029867 2.7496955 1.3736538
