11

N -0.88972455 0.31950486 1.3937835
C -0.3312493 0.02790245 -0.70784235
C 0.21597652 -0.5785305 1.6816204
N -0.55745333 -1.1696568 -0.05677515
C -0.79607064 0.9684359 0.21927333
N 0.4215612 0.13674839 -1.8236519
N 0.6038056 -1.400677 0.7828248
H 0.5984872 -0.71630406 -2.331777
H -1.0487018 2.0170717 0.09307611
H 1.1045393 0.8731496 -1.9148045
H 0.6788298 -0.4776447 2.664273
