11

N -0.65549592 -1.44743299 -0.97075719
C -0.97408547 -0.21757800 -0.82845492
C 0.53901529 -1.51246286 -0.14182649
N 1.29407903 -0.26238043 -0.15396950
C 0.02437900 0.42887219 0.08443726
N 0.04434750 1.77866376 0.44354619
N 0.45482202 -0.63487361 1.01898614
H 1.08425410 -2.44727554 -0.04905435
H -1.81293926 0.25175571 -1.33034544
H 0.82532525 1.98647693 1.05211398
H -0.82370138 2.07623456 0.87532431
