11

C 1.42208670 -0.46949939 0.01377394
N -0.86651425 0.08339564 -0.65088046
C -0.68609180 0.39743015 0.74326459
C 0.51122463 -0.13991726 -1.15623915
N 0.66229730 -0.16945418 1.03787670
H -0.65022611 1.48011177 0.92442943
H 0.91317625 0.77875436 -1.60933226
H 1.00883334 -0.21904833 1.98743097
H 0.52210024 -0.90559872 -1.93870747
H -1.37053024 -0.79549027 -0.72869272
H -1.46635546 -0.04068377 1.37707642
