11

C -0.14305483 -1.56336044 0.30777726
C -0.05838627 -0.17532768 -0.15866178
C 0.83572877 0.69070394 0.69917999
O -1.43183347 0.32331946 -0.30481670
C -0.21840624 0.15703001 -1.60438317
N -0.14339473 -2.67347479 0.62912725
H -1.41485758 1.28578667 -0.17271972
H 0.53292379 0.67145315 1.75037876
H 0.82218688 1.71154191 0.30746659
H -0.64252945 -0.74850775 -2.07514925
H 1.86162381 0.32083524 0.62180063
