11

C -0.5196143 1.1356219 0.478596
C -0.12751515 -0.23183256 -0.030945085
C 1.2591522 -0.7130804 0.029125703
O 0.27855176 -1.1812803 0.93971175
C -0.98781407 -0.77565247 -1.081978
N -1.6782777 -1.1690997 -1.9199334
H -1.5252033 1.1102092 0.9083345
H 0.18370694 1.4519752 1.2540078
H -0.5082782 1.8679438 -0.33368266
H 1.6127545 -1.4445667 -0.6942085
H 2.012538 -0.050238255 0.45097175
