10

O -1.4132829 1.3974019 1.32913
C 1.039383 -0.23694977 -0.40137312
N -1.1917292 0.015460355 -0.6593684
C -0.07647406 -0.4319759 -1.2295322
C -0.85300326 0.53344697 0.6573732
N 0.6029992 0.29695216 0.72497445
H -0.092070565 -0.9804541 -2.1620617
H 1.1431696 0.6016208 1.5175635
H 2.0635562 -0.5490489 -0.5607505
H -1.222548 -0.6464534 0.7840449
