14

C -0.79421718 0.81051324 0.09709156
N -1.86250410 1.20114722 0.65351973
C 0.79964155 0.03481402 1.61674133
O 0.38643383 1.02304402 0.79682082
N -0.57543496 0.32735381 -1.16183357
C 0.62469299 -0.39776923 -1.54912756
N 0.32530267 -1.13538217 1.58568556
H 0.77641694 -1.71271197 2.29406986
H 0.70395018 -1.36500422 -1.04287847
H -2.66018987 1.07090690 0.03488056
H -1.42137364 0.06480029 -1.64435298
H 0.59451036 -0.54725228 -2.63166230
H 1.59790229 0.42171025 2.26115600
H 1.50486930 0.20383022 -1.31011080
