14

C -2.3942845 -0.079863146 0.97258353
N -1.3523484 0.13469525 -0.014651506
C -0.0344478 0.039461333 0.34374002
O 0.35415658 -0.07228716 1.4912871
N 0.8434055 0.10878685 -0.73408216
C 2.216167 0.0049271914 -0.5902024
N 2.9643683 0.11388243 -1.6129413
H -2.0370586 0.2905007 1.933977
H -2.6521647 -1.1405993 1.0815171
H -3.2875931 0.47761872 0.68060416
H -1.5937084 -0.018921772 -0.9815652
H 0.5164155 0.30476496 -1.6708056
H 2.5198228 -0.17080174 0.4428767
H 3.9372702 0.007835793 -1.3423377
