10

C 0.03092503 0.30211307 -0.80442162
O -0.34028152 0.53093622 -1.93704654
C -0.95218020 -0.09508354 0.29603971
O -0.33352278 -0.61641448 1.45882201
N 1.31587144 0.37391128 -0.37339287
H 1.51040684 0.27193442 0.61051515
H -1.48258720 0.80993629 0.60601474
H 2.01966082 0.73290009 -0.99967460
H -1.68828885 -0.77952155 -0.14187319
H -0.08000362 -1.53071187 1.28501710
