10

C -0.93702877 -0.35376748 -0.0123775145
O -0.7011655 -0.47520348 1.3790992
C 0.2598524 0.17731576 -0.8002241
O 0.30538964 0.10925424 -2.0111277
N 1.2210348 0.72090197 -0.011129398
H -1.2548614 -1.294423 -0.47738144
H -1.7524272 0.36624622 -0.12719327
H -0.18195103 -1.273722 1.5314289
H 1.0435575 0.82931274 0.9753123
H 1.9975994 1.1940851 -0.4464068
