10

C 0.24181673 -0.56159353 1.1097386
O 1.3659328 0.19554242 1.0701895
C -0.7382423 0.15527879 -0.40077537
O -0.9326806 -1.1068332 -0.28765234
N -0.38648686 0.59948313 -1.6200554
H 0.54839826 -1.6030817 1.1171603
H -0.429623 -0.034436893 -2.4131086
H 1.1353573 1.0787628 1.3909069
H -0.51334614 -0.30647862 1.8403438
H -0.29112604 1.583357 -1.8067473
