11

O -1.47416531 -1.79054229 -0.66658097
C 1.15830454 0.43852665 -0.36677385
C -0.70883197 -0.90380575 -0.36254839
C -0.85382172 0.16918532 0.72361107
C 0.41732107 0.96549804 0.61030555
N 0.51586018 -0.65963482 -0.95416176
H -0.98369091 -0.31338493 1.69726576
H 0.87921684 -1.22223210 -1.70568781
H -1.75972425 0.75760220 0.53621338
H 2.13226577 0.74105979 -0.73164788
H 0.67726563 1.81772804 1.22000520
