11

O 0.1858165 -1.9084247 1.1303998
C 0.02763294 -0.7650926 0.41583815
C -0.8753707 -0.36785305 -0.5372303
C -0.5017346 0.96494323 -0.9088488
C 0.5958952 1.3151444 -0.17649916
N 0.9155772 0.2426177 0.6376974
H -0.50714797 -2.5229807 0.86519146
H -1.7009649 -0.9492644 -0.92368233
H -1.0028663 1.5810499 -1.6401087
H 1.1835233 2.2201326 -0.15402883
H 1.6796392 0.18972778 1.2912716
