11

N -1.50326398 -0.38192354 0.34319345
C -0.38549168 -0.84841304 0.87588244
C 0.62948812 -0.22188519 -0.07459733
N 1.70398473 0.45221063 0.60826441
C -1.29135859 0.51309964 -0.75866594
N -0.06513337 0.67838958 -1.02134482
H -2.42363084 -0.61161595 0.68934933
H 0.95525786 -1.07574923 -0.70434031
H 2.05605684 -0.14025574 1.34983898
H 2.45474866 0.66467179 -0.03585858
H -2.13065751 0.97147144 -1.27172162
