11

N 0.047538236 0.10481626 -1.5708916
C 0.19262148 -0.118792124 0.55473816
C -0.9335574 0.8514388 -0.9576707
N 0.7563561 -0.142934 1.8365365
C 0.86795086 -0.53330165 -0.66392416
N -0.89282227 0.7663936 0.32914087
H 0.07821161 -0.35968006 2.555786
H 1.5581101 -0.7552457 1.8747449
H -1.6642594 1.4207764 -1.5225612
H -0.14820853 -1.2231375 0.13227515
H 0.13805927 -0.010334033 -2.568174
