11

N -0.9796657 -1.7050208 0.5971688
C -0.34746483 -0.539453 0.15263045
C 0.9660791 -0.16222319 0.266939
N 1.0409882 1.052594 -0.3998818
C -0.1944121 1.3260027 -0.8751594
N -1.0595131 0.39233682 -0.5570975
H -1.9823492 -1.6028869 0.5145643
H -0.7267348 -1.9737964 1.5389016
H 1.828448 -0.62096554 0.7240295
H 1.8670243 1.6149905 -0.51631415
H -0.41239962 2.2184222 -1.4457808
