11

C -0.73118395 -0.17172423 -2.314341
C -0.16372707 -0.12055908 -0.9690099
C 0.31908956 -0.086576365 0.13369952
C 0.9765575 -0.09766509 1.4391547
O 2.0858731 -0.561835 1.6081611
N 0.24438538 0.4700668 2.4395757
H 0.008255831 0.15287265 -3.0527215
H -1.6081398 0.47401258 -2.3986073
H -1.0287029 -1.194146 -2.5609295
H 0.6138929 0.39867523 3.3745987
H -0.7163005 0.7368786 2.3004189
