11

C 0.08773555 -0.51224595 -0.054225117
C 1.0755967 0.19432412 0.08996546
C -1.3391675 -0.9694267 -0.4860022
C 2.2137506 1.114011 0.12229805
O -0.70243794 -1.6561037 0.47292197
N -2.6322937 -0.7816062 -0.23914115
H -3.0695136 -1.2149863 0.570252
H 2.6191976 1.3048888 -0.87836975
H 3.0247493 0.7050224 0.73518187
H 1.9233571 2.078637 0.55355036
H -3.2009742 -0.2625144 -0.8864315
