11

C 0.38604867 1.9538598 0.6213282
C -0.48843256 -1.1432302 -0.49139014
C -1.2507436 -2.2241771 -1.1181813
C 0.119462125 -0.24869601 0.019930983
O 0.87769693 0.66056854 0.60845476
N 1.3298254 2.6458147 1.2484668
H -0.60463387 -2.8220031 -1.7696115
H 1.1846076 3.6330974 1.3739145
H -1.68771 -2.8831704 -0.36178556
H 2.1955824 2.237619 1.5948534
H -2.061703 -1.809683 -1.7259799
