10

O -1.7656829 -1.1061854 1.2134306
C -0.87544036 -0.5464062 0.6024522
N -0.86693466 -0.13670553 -0.7231346
C 0.3447162 0.46378562 -1.0516889
C 1.11251 0.44701976 0.050724003
N 0.37456062 -0.16506052 1.0604692
H -1.6524651 -0.2820478 -1.3317732
H 0.54603314 0.84737146 -2.0391133
H 2.1131396 0.8143842 0.21314695
H 0.6695638 -0.3361554 2.0054872
