10

O -1.4734927 0.53914225 -1.3481174
C -0.66425174 0.12814847 -0.21375524
N -0.89807284 -0.3153168 0.97131234
C 0.41684234 -0.414831 1.417195
C 1.3062356 -0.018098483 0.43857932
N 0.55791914 0.33734652 -0.66521764
H -0.35122514 0.7158922 -1.7201817
H 0.630832 -0.7684048 2.4170125
H -1.9103014 -0.23254806 -1.7458742
H 2.3855145 0.028669618 0.44904694
