14

C -2.81859239 0.60072931 -0.00043142
N -1.33890964 0.73316831 -0.37614258
C -0.30745266 -0.25428201 0.13219396
O -0.65259155 -1.22204982 0.74010049
N 0.97434727 0.09266761 -0.18519408
C 2.08442380 -0.66512483 0.19435444
N 3.24271643 -0.29022479 -0.14894349
H -1.03542452 1.66676662 -0.09468092
H 1.81135490 -1.54893210 0.77272978
H -2.76449618 0.63334864 1.10137434
H -3.01198671 -0.45918516 -0.22748980
H -1.30435435 0.72390057 -1.39345193
H 3.93711718 -0.93037862 0.21993328
H 1.18384903 0.91959630 -0.73435192
