9

N -1.24797030 -0.71559947 -1.11230942
C -0.22401964 -0.26417995 -0.51241446
C -0.16227094 0.33371164 0.81543903
N 0.97993806 0.74758544 1.29011859
N 1.96009982 1.11086359 1.70714706
O 0.98910825 -0.31143392 -1.11386154
H 0.82147211 -0.72577733 -1.97461377
H -2.09323645 -0.62344329 -0.55402457
H -1.02312090 0.44827328 1.45451939
