11

C -0.05865123 -0.33153019 1.32378060
N -0.01908347 0.00043115 0.00299203
C -0.37061972 1.31666307 -0.01919834
C 0.36669249 -0.84016171 -1.11426782
N -0.60956030 1.74533666 1.18928090
N -0.41170782 0.69713164 2.04376903
H 0.17224650 -1.31838294 1.69779999
H -0.43914199 1.90200396 -0.92544598
H 0.11580517 -1.87807713 -0.88707327
H -0.18578646 -0.53324712 -2.00468796
H 1.43980662 -0.76016742 -1.30694927
