11

C -1.3074628 -0.7884729 0.68259406
N -0.12809677 -0.051424984 0.26732942
C 0.39722505 0.10055151 -0.97219884
C 1.4882675 0.9039317 -0.76962966
N 1.5712492 1.1947737 0.5536656
N 0.5919629 0.6163939 1.1755358
H -1.3637261 -0.71028274 1.768316
H -2.2051518 -0.35344017 0.23542432
H -1.219003 -1.8381324 0.3933455
H -0.031347886 -0.35747334 -1.8518435
H 2.2060835 1.2835757 -1.4825388
