10

O 0.33559 -0.50876915 -2.235967
C 0.14689635 -0.3244588 -1.0684866
C -0.9063402 0.486685 -0.26543304
C 0.009515625 0.26924333 0.93906283
O 0.073053055 -1.1284931 1.1374246
C 0.9725017 -0.5578963 0.18850839
H -1.9089067 0.06481486 -0.1725928
H -0.95872676 1.5153906 -0.6321772
H 0.20367603 0.9194009 1.7837691
H 2.0327408 -0.73591727 0.32589117
