10

O -1.5327464 -1.2604787 -1.961851
C -0.6071272 0.40938926 -0.54054356
C 1.620258 0.30779126 0.9687507
C 0.41179276 0.4593481 0.47465673
O -0.8230538 0.8613554 0.83280504
C -1.247081 -0.91033405 -0.8458663
H 2.4092162 -0.09710566 0.34291896
H -0.673989 1.1809171 -1.3057857
H 1.8470948 0.59708095 1.9872664
H -1.4043641 -1.5479635 0.047648683
