11

N -1.91837823 0.16836035 -1.38351133
C -0.99687872 0.01059284 -0.52424074
C 1.29923126 -0.62119470 0.71025674
N 0.93985965 0.78109748 0.67158803
C -0.14947193 1.05016501 0.08328563
N 0.25741530 -1.63591763 0.51525187
N -0.79947301 -1.34642132 -0.06220076
H 1.74783438 -0.83976766 1.68472966
H -1.99328125 1.15006605 -1.64767576
H 2.07340264 -0.81077812 -0.04024590
H -0.46026024 2.09379760 -0.00723750
