11

N 0.6187583 1.108539 0.576853
C 0.78933203 -0.07311182 1.3964093
C -0.070176795 0.94977283 -0.47448048
N -1.0896473 -0.7051472 -1.9844546
C -0.6590969 -0.3479715 -0.8445205
N -0.81491536 -1.3212067 0.21494693
N -0.15213658 -1.1894232 1.2530365
H 0.74106693 0.2225607 2.4494357
H -0.2086992 1.7963254 -1.151321
H 1.7925782 -0.47890183 1.2309735
H -0.94706357 0.03856436 -2.6668785
