11

N -0.4242185 -1.6486233 -1.0690037
C -0.23477733 -0.48990172 -0.3572029
C 1.0115099 -0.13302688 0.20404309
N 1.1622803 1.0140418 0.8264721
C 0.06595535 1.7899553 0.8754263
N -1.1198581 1.491037 0.37275356
N -1.2764449 0.32905114 -0.24880452
H 0.17721295 -2.4314446 -0.8667384
H -1.3893049 -1.8815471 -1.2437165
H 1.8755032 -0.79175043 0.1360075
H 0.15214187 2.7522087 1.3707634
