11

N -0.38964525 -0.90958244 -1.7875068
C -0.15987924 -0.34693363 -0.6774478
C 1.0446368 0.36997658 -0.075741746
N -1.1050979 -0.2692138 0.34301162
C -0.5466981 0.38800687 1.4254007
N 0.65784556 0.77796656 1.2767191
H 1.9223866 -0.2849643 -0.03590476
H -1.1344117 0.5416913 2.3265786
H 0.42409602 -0.85923344 -2.3974957
H 1.3173145 1.2501289 -0.6695553
H -2.0305474 -0.65784234 0.27194247
