11

N -1.3891104 -0.9447637 1.3405906
C 0.7077477 -0.821358 -0.100698635
C 0.37756333 1.2983943 -0.6588349
N -0.63400203 0.9167666 0.13535412
C -0.5044018 -0.4333983 0.56051546
N 1.2700119 0.32617244 -0.81625396
H 1.353736 -1.6594847 0.10968792
H 0.43435425 2.2660038 -1.1369311
H -1.3913754 1.4915023 0.47250095
H -1.1308945 -1.9023546 1.5696489
H 0.90637153 -0.53748006 -1.4755795
