11

N -0.97868182 -0.62464459 0.25174474
C 0.00424626 -1.15979223 1.06586074
C 1.02430555 0.42778674 -0.04101440
N 1.15920869 -0.63010952 0.96291303
C -0.42564739 0.39938207 -0.51398266
N -1.09194895 1.06240110 -1.36135806
H -1.94057611 -0.91162867 0.18146490
H -0.23697615 -1.97964255 1.73728086
H 1.71988414 0.25277326 -0.86957940
H 1.27640128 1.39874837 0.40093246
H -0.51021553 1.76472609 -1.81426221
