11

O -0.20548699 -1.67401470 1.72398734
C -0.07134510 -0.81927306 0.87967335
C -0.94019049 -0.52524013 -0.34909144
C -0.24898280 0.63930748 -1.00268770
C 0.82184716 0.95829299 -0.27476480
N 0.94312094 0.11655224 0.84116718
H -0.57268082 1.13342033 -1.90653267
H -0.99425897 -1.41851947 -0.97981787
H -1.96377575 -0.30068000 -0.02610548
H 1.55385075 1.73835979 -0.43461484
H 1.67790216 0.15179505 1.52878698
