11

O 1.4137346 -1.755342 0.12260074
C 0.7004044 -0.7203521 -0.15658453
C -0.70511234 -0.83467656 0.04272885
C -0.09008982 1.3633862 -0.059613284
C -1.1564713 0.5575502 0.14843713
N 1.0640906 0.5696908 -0.29400873
H -0.010710281 2.4403837 -0.08988551
H 0.2120488 -1.8254049 0.6787592
H 2.0109966 0.8860888 -0.14580306
H -1.2628913 -1.5765599 -0.5262131
H -2.176 0.89523554 0.2795824
