11

O 0.18961862 -1.9074862 1.1307267
C 0.029506046 -0.76381874 0.41506547
C -0.87548566 -0.36902496 -0.5354478
C -0.5035806 0.9646545 -0.9084358
C 0.59475464 1.3144109 -0.1783938
N 0.91720974 0.24293528 0.63557655
H -0.5055233 -2.5217588 0.86579823
H -1.7000672 -0.9512511 -0.92023313
H -1.007461 1.5792705 -1.6392658
H 1.1812588 2.2193313 -0.15717766
H 1.67977 0.19273783 1.2917871
