10

O -1.95038001 -0.48495177 -0.03339491
C -0.97719025 -0.32647824 -0.89567642
C 1.30425865 -0.24331440 0.61195409
O 0.86889544 0.98875143 0.02731472
C -0.30337571 0.98000320 -0.60690704
O -0.77296338 1.97462784 -1.10771974
H 1.33279244 -1.04054695 -0.13353200
H -2.45980422 -1.26926990 -0.28997447
H 2.31002334 -0.05308721 0.98685246
H 0.64774361 -0.52573416 1.44108349
