12

N 0.94703805 0.13092573 -0.54119134
C -0.54387516 0.28728867 -0.6959551
C -0.9140974 1.6293077 -0.45654768
C 1.1014378 -0.60092515 0.7556475
N -1.2168908 2.7480152 -0.32728234
C -1.0549583 -0.7909569 0.2264952
N 0.042711973 -1.1041464 1.1826267
H 1.3624268 -0.41062692 -1.3072302
H -1.2919103 -1.746264 -0.26532504
H 2.0931733 -0.70228404 1.1891145
H -1.9420869 -0.48481807 0.7867497
H 1.4170312 1.0444844 -0.54710186
