10

N 0.55938402 -0.04145882 1.90586133
C -0.30501090 -0.15477877 0.66113923
C 0.25481339 -1.18516062 1.50459977
N -0.36666464 0.90535407 -1.51457390
C 0.37680526 0.16528891 -0.64011181
O 1.49266459 -0.24835966 -0.88900319
H -1.17418888 1.41927849 -1.20297036
H -1.35086591 0.13752932 0.76755398
H 0.40868169 -2.22606728 1.75405923
H 0.10438131 1.22837426 -2.34655416
