10

N -0.82657766 0.8713628 1.3521376
C -0.17199954 0.17830357 0.34947506
C 0.35019943 -1.0661902 0.21316929
N 0.98826396 -1.1473024 -1.0259122
C 0.81274825 0.008568179 -1.5522026
O 0.11501602 0.8836444 -0.77404493
H -1.5057209 1.5342491 1.0040795
H -1.2292943 0.26572978 2.0518613
H 0.32919076 -1.9017495 0.8961678
H 1.1381739 0.37338418 -2.5147307
