11

N -0.21924199 -1.4303335 -0.73273927
C -0.9273871 -0.8377142 0.34289244
C 0.84858626 0.46784925 -0.4139173
N 0.75208837 -0.73148197 -1.1501353
C 0.9296479 0.2637557 1.0406814
N -0.09032012 -0.43308643 1.3739066
N -0.0055324244 1.4042192 -0.75874007
H -1.8413262 -1.3475246 0.6288162
H 1.6615347 0.6432693 1.7367295
H -0.9594276 0.58679974 -0.29745722
H -0.14862177 1.4142478 -1.7700367
