11

N 0.00724317 -1.69608131 -0.36764674
C -1.03225252 0.36172221 -0.24098845
C 1.24065123 -0.99981622 0.03985029
N 1.14444802 0.24990428 0.75929807
C 0.04384846 0.86525552 0.63118203
N -1.98090085 1.01831135 -0.76463107
N -1.03914031 -1.06319538 -0.51411298
H 1.79566522 -1.70566342 0.66702181
H -1.91862447 1.99942998 -0.49431072
H 1.83555084 -0.84494423 -0.86746854
H -0.09648878 1.81507711 1.15180625
