10

O 0.83144390 0.88833258 -1.42608950
C 0.28398057 0.13927961 -0.44632618
C 1.20512027 -0.54926169 0.52237549
N 0.61096917 -0.18125505 1.59710407
N -0.35477469 0.67748776 0.84693619
C -1.43330281 -0.13079771 0.38641699
N -0.99758145 -0.54238032 -0.75203649
H 0.13100694 1.16290078 -2.03575910
H 2.10638013 -1.14487199 0.42900428
H -2.38324221 -0.31943398 0.87837448
