10

O 0.9902689 0.5055535 -1.798028
C 0.38059866 0.1818955 -0.65611213
C 1.1510949 -0.27803704 0.43381193
N 0.56716937 -0.60175586 1.5674875
N -0.7592919 -0.4909058 1.6809733
C -1.4294146 -0.05559381 0.62878996
N -0.92216355 0.29506537 -0.56367844
H 0.29977033 0.7968249 -2.4162102
H 2.2294583 -0.380222 0.37770182
H -2.5074906 0.027175235 0.7452645
