10

O 0.011696272 -0.8498817 1.6095313
C -0.8145016 -0.24945135 -1.1434104
C 0.2816351 -0.3348621 0.44244733
N 0.2622011 1.7026532 -0.29312608
N -0.94664586 0.9417546 -0.4652408
C 1.0453963 0.9311442 0.35454535
N 0.0753151 -1.1136556 -0.7077014
H 2.0553675 1.1536846 0.6796989
H -1.4993395 -0.4972675 -1.9517676
H -0.47112468 -1.6841182 1.4750235
