10

O -0.90920776 1.3062375 1.6777763
C 0.3376507 -1.0221592 -0.60091424
N 0.049961727 1.1266826 -0.20358239
C -0.16311587 -0.9396678 0.6764952
C -0.368492 0.46150914 0.8750484
N 0.37567136 0.21550444 -1.1732965
H 0.6450849 -1.8911586 -1.1665838
H -0.56204486 2.0079937 0.49006137
H -0.39610082 -1.7511797 1.347535
H 0.9905927 0.48623762 -1.9225395
