10

O 2.3630726 -0.39652336 0.27415845
C 1.1728483 -0.19709118 0.13641305
N 0.33041194 0.5708978 0.924531
C -0.9731426 0.5519657 0.43516418
C -0.9758201 -0.22360733 -0.66238314
N 0.3266926 -0.6825898 -0.8477906
H 0.6596752 1.063538 1.7357376
H -1.7755055 1.0899992 0.9148543
H -1.7806153 -0.4920863 -1.3271253
H 0.65238315 -1.2845025 -1.5835595
