10

O -0.422677 2.1991458 -0.006577854
C 0.73062986 0.16283284 -0.74826735
N -0.39120805 -1.1463965 0.60012203
C 0.57317907 -1.1420221 -0.34393135
C -0.20943233 0.86864483 0.0376664
N -0.88730454 0.084161215 0.85131687
H -1.1123295 2.39807 0.6399799
H 1.0678809 -2.050805 -0.6530483
H -0.75800335 -1.9302253 1.1114148
H 1.4092647 0.5565937 -1.4886752
