12

N -2.1307755 0.56389755 -0.08109885
C -0.78605795 0.1968075 -0.040828295
N 0.1507107 0.8166079 0.63902557
C 1.3075604 0.15897454 0.30781305
O 2.493272 0.54029936 0.8298624
C 1.0849892 -0.86888623 -0.5555803
N -0.3009685 -0.83600223 -0.76509273
H -2.2906096 1.3137994 0.5797241
H -2.755199 -0.20689449 0.11934896
H 2.3052306 1.2796365 1.4222455
H 1.7337868 -1.6091354 -0.9912134
H -0.8119399 -1.349104 -1.464206
