12

N 1.1757061 0.42787683 -0.047476545
C 0.12203234 0.03281376 0.75683725
N 0.16074762 0.19390422 2.1204383
C 0.9157043 0.21770823 -1.3946259
O -1.134856 -0.8711635 -2.241695
C -0.44472772 -0.24095875 -1.2582899
N -0.8835131 -0.40834302 0.071935065
H -2.0268335 -1.0194595 -1.8998187
H -0.3380852 0.9660235 -1.5382655
H 1.0619228 0.062896654 2.555096
H 1.9853516 0.9254165 0.28652632
H -0.59344953 -0.2867149 2.5893385
