12

N -1.95853070 -0.03962858 -0.89349112
C -0.68720793 0.04041285 -0.39239930
N -0.50802494 0.53049315 0.95106783
C 0.75641194 0.60731834 1.32186629
O 2.47929322 -0.71685413 0.16483231
C 1.44334432 0.19952341 0.00751190
N 0.41155605 -0.22349181 -0.96442582
H -1.28277443 0.76359165 1.55759053
H -2.69004128 -0.25639316 -0.23524225
H 1.91522577 1.10994969 -0.39328800
H 2.13392249 -1.47847249 0.64727438
H -2.01317525 -0.53644852 -1.77129674
