12

C 0.36345285 -0.46924666 0.11978455
N 0.26056698 0.63427246 0.8634362
C -0.9698796 -0.72363067 -1.9031408
N 0.1836231 -0.3248373 -1.2706418
C 0.42339808 0.8638839 2.1521275
O -1.1128772 -0.733158 -3.1060622
H 0.0024094484 1.4468572 0.30947018
H -1.7512199 -1.0214531 -1.1768366
H 0.67841786 -1.3989797 0.5750409
H 0.69910586 0.049879473 2.8094585
H 0.9745816 -0.18689173 -1.8926471
H 0.24842085 1.863304 2.520011
