11

N -1.149951 -1.1428035 -0.5782713
C -0.20876561 1.3284676 0.068275705
C -0.01504347 -0.5730196 -1.1695843
N 0.71153396 -0.4913112 1.3888073
C -0.34010315 0.19327095 0.9815068
N -1.3525059 -0.71436226 0.59877443
N 0.017577536 0.8220333 -1.0947638
H 0.28371328 -1.0217109 -2.1118598
H -0.27558616 2.3907788 0.25681186
H 0.8141718 -0.9006943 0.11939717
H 1.514959 0.10935098 1.5409056
