10

O -1.3916231 1.1941912 -0.51689935
C -0.1943977 -0.61304426 0.46431574
C 1.1440333 -0.10052799 0.03871236
O 1.3105131 0.8757392 -0.87672955
C -1.3872263 0.0421598 -0.1276974
O 0.6282478 0.21233092 1.2990619
H -2.2768822 -0.6037711 -0.25148132
H 0.4992958 1.4143671 -0.89022577
H 1.9928368 -0.7845122 0.046463672
H -0.32479745 -1.6369327 0.8144797
