10

C 0.97226065 0.12916107 0.92651176
C -1.2297732 -0.107592404 -0.22076945
C 0.17432702 -0.50729257 -0.16864829
C -2.3782704 0.22849241 -0.24136412
N 0.94557106 -0.077160314 -1.3496774
N 1.9272512 0.57949525 -0.99192286
N 1.9808979 0.74546003 0.45602915
H 0.75455785 0.08465784 1.9868656
H 0.25578782 -1.6011957 -0.127175
H -3.4026096 0.5259744 -0.2698495
