11

C -1.1443579 -0.31355682 0.70476604
N -0.059597604 0.65767276 0.63835096
C 1.1048782 0.18332355 -0.08029141
C 0.8330702 -0.16924955 -1.497459
N 0.5540892 -0.41300267 -2.5915484
H -1.5123932 -0.63934356 -0.27979007
H -1.9767258 0.12631989 1.2621819
H -0.8016574 -1.1975638 1.2547547
H -0.38870296 1.5200301 0.21949495
H 1.8873214 0.94858915 -0.057314273
H 1.5040761 -0.7032191 0.4268548
