11

C -1.34706075 1.03454293 1.20265180
N 0.10342675 1.40355805 0.91834761
C -0.39097633 0.38865097 0.35036903
C 1.27803508 -0.78349755 -0.97435307
N -0.09357546 -0.56895483 -0.54799928
H 1.28572718 -1.20342606 -1.98373280
H -1.57435737 0.63422801 2.19193247
H -0.75423389 -1.31676267 -0.64628231
H -2.11710884 1.68480734 0.78323213
H 1.78582214 0.18370805 -0.99168771
H 1.82430171 -1.45685427 -0.30247768
