11

N 2.4923928 0.032519847 -0.19570269
C 0.4403479 1.3465106 -0.19306454
C 1.2210492 0.07526902 -0.13133672
C -0.9426649 -0.67603976 -0.029132456
C -0.917397 0.853046 0.11160563
O 0.43481994 -1.0407553 -0.006461429
H 2.814769 -0.93614304 -0.14550059
H -1.4535804 -1.1975324 0.7842468
H -0.9898416 1.1425754 1.178821
H -1.3759605 -0.99442834 -0.98325056
H -1.7239345 1.3949782 -0.39022443
