11

N 1.9147482 0.62521267 -1.2106072
C 0.88652796 0.26707467 -0.56695837
C 0.053986836 1.1204278 0.3032685
C -0.93375015 0.3812269 0.79892683
C -0.8053433 -1.020963 0.27804193
O 0.35109213 -0.9920103 -0.56018853
H 2.3071783 -0.1541877 -1.7364821
H 0.26816502 2.1684618 0.46785024
H -1.7233576 0.69474643 1.4708468
H -1.6697619 -1.3333547 -0.3190582
H -0.64948577 -1.7566345 1.0743604
