10

C -0.4720263 1.3500302 0.38140008
C -0.71105164 -0.62642705 -0.2920397
N 0.83227116 0.7078021 0.32943052
C 0.51350814 -0.7233471 0.57923394
N -1.4314436 0.6075337 0.018902307
C 0.67980796 -0.28716916 -0.76627564
H -1.2635137 -1.4926435 -0.6374907
H 1.0201663 -1.4112861 1.2403731
H -0.54660296 2.3818867 0.7084031
H 1.3788848 -0.50637984 -1.561937
