11

C 0.5955144 0.7341982 2.2401597
C 0.30422646 0.16799165 0.9290771
C 0.07332393 -0.31407142 -0.15040074
C -0.14477484 -0.97159827 -1.4411229
O 0.32737538 -2.055686 -1.7162484
N -0.9346083 -0.26189306 -2.29669
H 0.46655002 -0.021504425 3.0223627
H -0.065207325 1.5776209 2.4662383
H 1.6303335 1.0876337 2.2821043
H -1.0385323 -0.62834936 -3.2322772
H -1.2142012 0.6856581 -2.1032028
