11

C -0.065794624 0.6374734 1.1600064
C 0.9673666 -1.5118515 0.07119074
C -0.92144656 1.3642057 -0.8005093
C 0.23322096 -0.22108789 0.15044646
O -0.24500254 0.27517548 -1.0810984
N -0.8200057 1.7162879 0.4540389
H -1.4121491 1.8896691 -1.6095468
H -1.2055856 1.381563 1.46858
H 1.8588308 -1.4331661 -0.5610073
H 0.3329738 -2.3092594 -0.33273023
H 1.277592 -1.7890092 1.0806296
