10

N -1.47130044 -0.03857063 -0.59937800
C -1.04796566 -0.74145541 0.35683945
O 0.13348459 -0.49642680 0.96485139
C 0.86753421 0.60649830 0.46237468
C 1.51055614 0.29460494 -0.82483949
N 2.03913427 0.05812405 -1.82109427
H -2.37443224 -0.37425760 -0.91929965
H -1.51982773 -1.59994253 0.83879169
H 0.22527100 1.47943692 0.33019919
H 1.63754576 0.81198900 1.21155523
