10

N -1.280238 -0.9247984 0.17665015
C -0.083872534 -1.2865936 0.33610252
O 0.935447 -0.40190867 0.3982515
C 0.25025544 1.3218385 -1.113125
C 0.5744364 0.96295065 0.27747962
N 0.016129423 1.6236688 -2.2002888
H 0.31815168 -2.2947698 0.453955
H -1.8992919 -1.7292622 0.15953568
H 1.4526814 1.5283504 0.6021711
H -0.28369886 1.2005241 0.9092683
