12

C 0.64083000 -0.55261226 -1.89816648
C 0.31608818 -0.51852879 -0.60487556
O 0.45654015 -1.55412974 0.26620042
N -0.21633345 0.59159929 0.02283934
C -0.56014644 0.70446382 1.35629209
N -1.03380244 1.80479605 1.77834644
H -0.36104483 1.41844359 -0.53551441
H 0.51656113 0.32426259 -2.52401684
H 1.03895932 -1.45318226 -2.35145089
H 0.82683842 -2.30382762 -0.21556908
H -0.38049672 -0.20221154 1.93744741
H -1.24399335 1.74092685 2.76846700
