12

C 1.3806713 0.45941246 0.8415661
C -1.6368557 -0.74981964 -1.0734885
O -1.4105171 0.48458958 0.76312584
N 0.6025254 -0.006278963 -0.21898842
C -0.7456815 -0.06263134 -0.2012973
N 2.6354618 0.5228785 0.7006611
H 3.067733 0.86823076 1.5532048
H 0.78809994 0.7310157 1.7169398
H -2.2599275 -0.06005613 -1.6422868
H -2.2371867 -0.2553934 0.24921103
H -1.2823095 -1.6020807 -1.6512305
H 1.0979866 -0.3298669 -1.037417
