12

C 0.5581025 -0.64772576 -1.8487115
C -0.07991319 -0.7416012 -0.4790335
O -0.6065336 -1.7454839 -0.049620457
N 0.010926713 0.41849303 0.27047664
C -0.47454053 0.54091233 1.5643626
N -0.34921357 1.6446445 2.1743057
H 0.13457926 -1.4254551 -2.4839942
H 0.4028411 0.3330771 -2.3104725
H 1.6374823 -0.81982195 -1.7602955
H 0.4518806 1.2415074 -0.11709404
H -0.9352702 -0.37687826 1.9347126
H -0.7503414 1.5783318 3.1053636
