12

C -0.34959066 -1.1033945 0.9808337
C -0.26068437 -0.62843126 -0.467918
N -0.26566947 0.81951624 -0.5838399
C 0.8768202 1.5494546 -0.49628446
O 1.9949881 1.0823108 -0.40950304
H -0.3434945 -2.1965547 1.025918
H -1.2695735 -0.7475712 1.4576156
H 0.5060241 -0.72634083 1.5490313
H -1.0954425 -1.0211875 -1.0575376
H 0.67091537 -0.9788242 -0.92341983
H -1.145657 1.3127252 -0.54217345
H 0.68136436 2.6382978 -0.5327225
