12

C 0.4191784 -0.87522286 -1.1052196
C 0.14015315 0.542224 -0.61272335
N 0.47143245 0.72541964 0.8103552
C -0.2703593 0.4334796 1.8814166
O -1.4563448 -0.037737202 1.4196254
H 0.15799622 -0.9703211 -2.164571
H -1.9822963 -0.22260155 2.2046704
H 1.3985064 1.065951 1.0188022
H 1.4798328 -1.1291375 -0.99504584
H 0.72973204 1.2710003 -1.1806529
H -0.9152455 0.79194725 -0.7438695
H -0.17258559 -1.5950016 -0.5327871
