12

C -0.28707278 -0.28519493 -0.7133086
C -0.24853198 1.2357432 -0.82792604
N -0.52469033 -0.7402331 0.6579648
C 0.4710135 -0.9402261 1.5143603
O 1.7122331 -0.7713131 1.09395
H 1.452723 -1.1002076 2.2275665
H -1.0718576 -0.7113374 -1.3465413
H 0.67089075 -0.7123472 -1.0258198
H 0.5663854 1.6340477 -0.21396959
H -1.1885734 1.6850941 -0.48999473
H -1.473576 -0.83142906 0.99024934
H -0.0789437 1.5374032 -1.866531
