12

C 0.37740104 0.12710223 1.90843926
C -0.12882625 -0.72341032 -1.27409471
N 0.83865984 0.45960410 0.70040808
C 0.08983707 0.60711835 -0.55894222
O -0.96732837 -0.01211800 1.78936562
H -0.69247649 -1.40646251 -0.63246933
H -1.28190728 -0.23121981 2.67261528
H 1.84060836 0.56945337 0.64646216
H -0.68988454 -0.57098525 -2.20224631
H 0.82700610 -1.19453074 -1.53105523
H -0.86796365 1.07700333 -0.32388219
H 0.65487430 1.29844569 -1.19460059
