11

O -0.7077364 -0.8236808 2.1079187
C 0.14096083 -0.5212252 -0.03638255
C -0.57595617 1.0194451 -0.7204176
C 0.24504107 -0.86940455 1.3339549
N 0.43152925 0.9407855 -1.7104647
C 1.0200176 -0.03003597 -1.0576525
N -1.2951719 -0.06862789 -0.50329256
H -0.67332494 1.9397703 -0.1380599
H -1.8608761 -0.008706893 0.34497952
H 2.0261908 -0.37957826 -1.2792168
H 1.249326 -1.1987413 1.6586334
