11

O 0.45689434 -1.0945575 -2.333655
C 0.80569845 -0.1499538 -1.662195
C 0.26810718 0.10876694 -0.336046
C 0.47289848 1.0746979 0.62132657
N -0.31110173 0.8393763 1.7136033
C -0.98505634 -0.25661188 1.4274462
N -0.67546755 -0.7369526 0.20582266
H 1.5612333 0.5780351 -2.021311
H 1.1424992 1.9228423 0.58063096
H -1.70601 -0.7342382 2.0767379
H -1.0296954 -1.5514047 -0.27236027
