11

O -0.27439454 -2.33829129 0.26777518
C 0.20871273 1.24036541 -0.94905800
C 0.19161460 -0.10086445 -0.25118167
C -0.26129308 0.74584295 0.88442012
N -0.11585024 1.97467733 0.05190596
C -0.31499166 -1.44898867 -0.55203578
N 1.01762463 0.11289389 0.97742152
H 0.45631919 1.57724842 -1.95152643
H 0.92017655 -0.75636965 1.51200023
H -1.08761228 0.59913985 1.57213126
H -0.74030597 -1.60565392 -1.56185208
