11

O 0.86404395 -1.977601 0.9783273
C -0.024689524 1.0168631 0.61002827
C 0.047162756 -1.5708803 0.18341808
C -0.8375233 0.69421166 -1.1399138
N -0.8435038 1.744164 -0.4023175
C 0.051047347 -0.17378917 -0.27780128
N 1.2353574 0.69082373 0.017673342
H -0.74352264 -2.2272942 -0.22780281
H -0.22292817 1.0759379 1.6751496
H 1.7899374 0.15262587 0.6912264
H -1.3153815 0.57493824 -2.1079879
