9

N -1.601975 1.8745627 0.7845742
C 0.75307685 -0.116957426 -1.0221667
C -1.1337861 0.9235449 0.3245588
C -0.5272351 -0.2561324 -0.2801811
N 0.4951495 -0.8743704 0.56736976
H 0.87068623 -0.2275149 1.2561042
H 1.2086549 -1.2072285 -0.23773098
H 1.2093594 0.84583545 -0.75012976
H -1.2739305 -0.96173936 -0.6423984
