9

N -2.1965282 0.30791393 -1.4319226
C -1.2769231 0.45138168 -0.74776226
C -0.1016789 0.6226798 0.08795269
C 0.47026545 -0.57871586 0.7546203
N 1.174328 0.057688423 -0.34433958
H -0.032763243 1.5923113 0.57245505
H 0.92914635 -0.46035472 1.7319894
H -0.029214162 -1.5284048 0.586007
H 1.0633678 -0.46449977 -1.209
