11

C -0.53177625 -1.0792227 -1.4126285
C -0.018218054 -0.25077698 -0.2868414
N 1.1584123 -0.26099077 0.24756423
C 1.0907705 0.69419587 1.254695
C -0.14215912 1.2340862 1.2685202
O -0.87001115 0.6363243 0.27989364
H -1.4262912 -1.632704 -1.1106465
H 0.24313462 -1.7861248 -1.7126683
H -0.79763246 -0.456385 -2.272511
H 1.938678 0.9141776 1.8890998
H -0.6449072 1.98742 1.8555229
