11

C -0.48843592 -0.9101388 -1.2512633
C 0.14947206 0.258455 0.49422172
N 0.5993058 -0.46824273 -0.5009112
C -1.5822861 -0.48311836 -0.5864158
C 1.24183 0.87741977 1.2030797
O -1.1964672 0.25539958 0.51450765
H -0.39836842 -1.5216715 -2.1350818
H 1.1671063 0.915215 2.2893455
H 1.6950805 -0.16785295 -0.08958738
H -2.6429527 -0.622235 -0.7228628
H 1.4557159 1.86677 0.7849675
