11

C 0.44750041 -1.07474139 -1.63251057
C 0.06520867 -0.40509845 -0.54361472
N 0.82897609 0.06089518 0.53061618
C -0.01438826 0.81859691 1.35900677
C -1.24591642 0.70860769 0.86921607
O -1.23562080 -0.05067491 -0.28544863
H -2.20845869 1.06471568 1.19812714
H 1.48316906 -1.36043086 -1.76182865
H -0.27730247 -1.34506749 -2.38890907
H 1.80749733 0.26791372 0.41025579
H 0.34933506 1.31528363 2.24508976
