11

C 0.3766586 0.3459869 1.1546838
C -0.6425795 0.64526886 -0.9922234
C 0.4777459 -0.087444596 -0.4312272
O 1.6663226 -0.068806015 -0.85714996
C -0.25544408 -1.4566183 -0.44437757
N -0.69801605 -2.5260432 -0.4697402
H 1.0639174 -0.35525504 1.6226219
H 0.768979 1.361081 1.2259448
H -0.6212125 0.26178092 1.5851098
H -0.53222704 1.2280099 -1.9078951
H -1.6041445 0.6520401 -0.4857472
