11

C 0.6563884 -0.20247819 0.9804334
C -1.0079228 0.055372182 -1.0007608
C 1.7426845 -0.0096475 0.017230071
O -1.5302817 0.6564115 1.2589408
C -0.7261729 0.232439 0.46945062
N 2.5838149 0.15297966 -0.7549164
H 0.5961954 -1.2676102 1.2335693
H -0.72474813 -0.9502591 -1.330108
H 0.8729309 0.3409131 1.9061633
H -2.0654795 0.23298346 -1.2026141
H -0.39740896 0.7588962 -1.5773883
