11

N 1.7706454 0.5767338 -0.22628452
C 0.64555246 -0.09127023 -0.08658592
C -0.23425338 -1.0620143 -0.500401
C -1.5158055 -0.51059294 -0.14950475
N -0.1253121 0.86336493 0.7095764
N -1.529378 0.6195053 0.50892085
H -0.049344443 -1.910777 -1.1407554
H 0.8922361 1.5403645 0.30647555
H 0.048147887 0.7192147 1.70425
H -2.4731178 -0.9491195 -0.41549134
H 2.5706291 0.20459072 -0.7101998
