11

O 1.94229159 -1.22703794 -0.84452373
C 0.00276597 0.12940419 -1.30350961
N -0.91845992 0.67306435 -0.46030889
C 0.95396109 -0.59201194 -0.50963485
C 0.46405406 -0.40981290 0.95526387
C -0.75858309 0.43774988 0.82834040
H -0.04967838 0.28323378 -2.36827609
H -1.68840765 1.23046730 -0.81367100
H 0.25411025 -1.39037472 1.39923389
H 1.25584716 0.05681414 1.55386293
H -1.45790133 0.80850391 1.56322278
