11

N 0.5551667 -1.5181755 -1.8545585
C -0.88660854 0.44541237 1.2072535
C 0.86334854 -0.24087784 -0.55281126
C -0.35523966 0.53966105 -0.14747284
C 0.32056996 -1.8862364 -0.73764926
O -0.10133256 1.561678 0.8000946
H -1.0177606 0.81433743 -0.96949804
H 1.5393568 -0.4247213 0.2819448
H -0.40433648 -0.22430125 1.9170408
H -1.9389688 0.65369046 1.387858
H 1.4258049 0.27953297 -1.3322018
