11

N 0.46245885 0.33827966 -2.9253588
C 0.35986507 0.6309727 -1.8135749
C 0.20788151 0.9673069 -0.39367574
C -0.59742427 -0.08726168 0.3431224
C 0.059049677 -1.1829506 1.054567
O -0.47134447 -0.060720447 1.7494422
H -0.28235728 1.9434217 -0.31025565
H 1.1973767 1.0588266 0.06747103
H -1.6136514 -0.23609065 -0.023133693
H -0.468315 -2.1224303 1.2084019
H 1.1464605 -1.2493536 1.0429943
