12

O -1.1877602 -0.1334966 -1.9817088
C 0.18374148 -0.007653999 -1.7533696
C -0.12999701 0.014562237 1.965777
C 0.51596206 0.056174174 -0.2839108
N -0.4290524 -0.02795012 0.55064934
H 0.57403636 0.90006787 -2.2399826
H -0.4956939 -0.9073584 2.42964
H -1.5947824 -0.17594431 -1.1023557
H 0.7312861 -0.85774523 -2.1912193
H -0.6804307 0.8449217 2.4197285
H 0.9415794 0.12743442 2.1875336
H 1.5711113 0.16698831 -0.00078212767
