12

O -0.54623127 0.61905766 -1.6951454
C 0.18866323 1.1735302 -0.63150954
C 0.36351475 0.16212933 0.4882105
C -0.7129943 -0.7885891 0.8341645
N 0.4216133 -1.2205968 0.016410176
H -0.23722075 -0.2977635 -1.7655998
H -0.35881466 2.050538 -0.26885056
H 1.1828727 1.5135076 -0.9631853
H 1.045749 0.45609283 1.283546
H -1.6567196 -0.7368727 0.30157933
H -0.7742602 -1.1496792 1.8595554
H 1.0838279 -1.7813545 0.54082495
