11

O -0.30675643 -0.06253327 -1.12800310
C 0.66271411 0.30144961 -0.17981593
C 0.18338462 0.62858281 1.19900122
O -1.36259539 -1.62328004 0.15325578
C -1.26463454 -0.97751709 -0.84954158
N 1.85788350 0.43988428 -0.54422736
H 1.96965051 0.19390194 -1.52821610
H -0.16475642 -0.27502875 1.70414891
H 1.01137711 1.07835564 1.74390528
H -0.65133835 1.33486594 1.14714562
H -1.93492873 -1.03868107 -1.71765263
