11

O 1.6838561 0.659508 -0.5150901
C 0.761158 -0.049329557 0.24951778
C -0.33615893 0.6904866 1.0431863
O -1.3510774 -0.14628795 0.41784093
C -0.42421713 -0.68658453 -0.4419006
N -0.5627143 -1.371238 -1.4807508
H 1.2636288 0.9020811 -1.3492948
H 1.3172889 -0.75527567 0.8725462
H -0.34551865 0.575374 2.128522
H -0.4605387 1.7373248 0.7515719
H -1.5457067 -1.5560588 -1.6761487
