12

O 0.4035651 1.174525 -2.1713057
C 0.75274783 1.290211 -0.8149204
C 0.20877838 0.17093368 0.018762168
N -0.7523806 -0.6140202 -0.4290758
N -0.97966886 -1.4209354 0.62832755
C -0.16141365 -1.0921744 1.6441174
N 0.605958 -0.08357606 1.2974424
H -0.48642892 0.80116737 -2.209849
H 0.4006103 2.2407908 -0.38229188
H 1.8453236 1.2893924 -0.74693906
H -1.6733453 -2.1488655 0.5715308
H -0.16374572 -1.6074488 2.594201
