12

O -1.20514350 -2.03169101 1.24257489
C 0.94622021 1.58343168 -0.63368217
C 0.39434976 -0.49884049 0.29494197
N 1.31272043 0.21624195 -0.48939753
N -0.26832894 1.93552974 -0.58746602
C -0.89925700 -1.21104720 0.14510340
N 1.34409130 -0.23717635 1.06672457
H -0.87224920 -1.75703845 -0.81067539
H -0.36306201 2.93087109 -0.77994934
H 1.80861473 2.22080308 -0.85553755
H -1.68041507 -0.44828899 0.08376220
H -0.51754056 -2.70279516 1.32360044
