12

O 0.40350994 1.1753665 -2.1713185
C 0.75534785 1.2888378 -0.8151266
C 0.20998882 0.17064029 0.021367032
N -0.7476855 -0.6141833 -0.43042675
N -0.98030806 -1.4189737 0.6264871
C -0.16635114 -1.0921102 1.6450421
N 0.6027787 -0.083243296 1.2998967
H -0.4840552 0.7989216 -2.211047
H 0.40518904 2.2392716 -0.3814193
H 1.8480353 1.2876222 -0.74999636
H -1.6750133 -2.145355 0.57080394
H -0.17143649 -1.6067942 2.595738
