12

O -1.3230697 -0.18430574 -1.9743571
C -1.0280268 -1.1968848 -1.0649341
C 0.7835488 1.2403555 1.0851201
N 0.977168 -1.2454627 0.4907085
N 1.8663974 0.75743616 1.5593408
C -0.0043122717 -0.71669686 -0.06614889
N -0.19499533 0.53273314 0.48911768
H 2.4825473 1.4894165 1.9003905
H -1.540481 0.604672 -1.4665997
H 0.5101827 2.2978036 1.1502013
H -1.9083782 -1.5256411 -0.49323303
H -0.6205807 -2.0534256 -1.6096063
