12

O -2.3271046 0.8127505 0.41974157
C -1.5760568 -0.37149355 0.39318034
C -0.16306853 -0.1368687 -0.05361022
N 0.36773118 1.0994997 0.012401132
N 1.6046966 1.0128219 -0.44831052
C 1.7993793 -0.37895748 -0.6904932
N 0.67979795 -1.0830411 -0.45809832
H -1.7414004 1.5330426 0.69690746
H 2.301963 0.17708275 0.31785968
H -2.0531156 -1.06592 -0.30388245
H -1.5459136 -0.8674301 1.3764734
H 2.6530912 -0.7314865 -1.2621689
