12

O -1.0289874 -2.4483116 0.26662102
C 0.43542072 -0.54673386 0.05324687
C -0.81450874 -1.2202454 -0.37938115
N -0.4116387 1.9770414 0.29198122
N 1.3928107 -0.56844 0.8588887
C 0.8205649 1.7668493 0.09517626
N 1.2784024 0.49783662 -0.3568634
H 1.6322616 2.4989312 0.16144069
H -0.5763668 2.950437 0.5411684
H -1.6444305 -0.56223273 -0.10731506
H -0.78598857 -1.3064376 -1.476699
H -0.29753923 -3.0386941 0.051735483
