11

C 1.0095112 -0.80986226 -1.1422572
C 0.21789758 -0.16260684 -0.059870332
C -0.8821856 0.63186437 -0.05205106
C -1.0912836 0.8838152 1.3321244
N -0.19926648 0.29295936 2.0755336
O 0.63080364 -0.37053356 1.2012348
H 1.0065935 -1.897674 -1.029984
H 0.5798093 -0.5577938 -2.113794
H 2.0489318 -0.4713571 -1.1209364
H -1.457137 0.9847365 -0.89446366
H -1.8636743 1.4764521 1.804464
