11

C -0.09154053 -0.38410088 -0.12639205
C 0.30111063 0.83162874 -0.5383009
C -0.43932748 -1.717546 -0.6560252
C 0.26507476 1.1886517 0.8899271
N 0.44850028 2.0935128 1.7281933
O -0.14833212 -0.123403355 1.241564
H -0.31757322 -1.740335 -1.740673
H 0.7318378 2.959849 1.2777071
H -1.4772775 -1.9581668 -0.40321204
H 0.5249811 1.3292454 -1.4690412
H 0.20254628 -2.4793358 -0.20374691
