10

O 2.14742357 0.50484338 0.65688022
C 0.48293937 -1.20995644 0.49913472
C 1.03446830 0.14191749 0.34387890
N -0.70656765 -1.56980424 0.15356621
N 0.09403481 0.98562672 -0.22486334
C -1.15188405 0.54446156 -0.56664539
N -1.57277754 -0.65631459 -0.40550640
H 1.12877744 -1.96347378 0.93823672
H 0.36489488 1.94522971 -0.38673434
H -1.82130893 1.27747018 -1.00794729
