10

O 1.4483639 -1.2699375 0.8692673
C 0.54731977 -0.45375594 0.3219084
C 0.88267267 0.8956755 0.08498402
N 0.004816902 1.7127098 -0.45424554
N -1.2070556 1.2580546 -0.7793846
C -1.4662365 -0.015465214 -0.53416455
N -0.63983524 -0.91898686 0.011401313
H 1.031441 -2.142975 0.95133084
H 1.8585889 1.2970991 0.3349247
H -2.4600756 -0.3624185 -0.80602187
