10

O 0.100963324 1.9746013 1.1783643
C 0.11490691 0.89561856 0.627042
C 0.8922292 -0.28133807 1.0349572
N 0.11456619 -1.6031935 -0.6967487
N -0.6296749 0.61423373 -0.50704294
C -0.59083354 -0.61267155 -1.1044961
N 0.89045787 -1.418608 0.42631203
H -1.2022254 1.3554193 -0.88550717
H 1.5168357 -0.18388212 1.9170427
H -1.2072252 -0.74017966 -1.9899235
