10

O -1.1241062 0.83899146 0.3714756
C 0.8605568 -0.6053391 0.24622792
C -0.16090128 0.17326501 1.0922234
O 0.38510573 -0.80088216 -1.1155007
C -0.29552603 0.21015865 -1.5359418
O 1.8845558 -1.1096057 0.5563698
H -0.8916584 -0.066960774 -2.4129636
H 0.46864295 0.8286519 1.7184429
H -0.5191681 1.1105789 -0.68211883
H -0.6075013 -0.5788583 1.761785
