10

O -0.22162597 -2.08113673 1.10845781
C 1.03902656 -0.16531185 0.22881853
C -0.16507651 -1.04515932 0.51515590
O 0.57485284 0.76680250 -0.72154688
C -0.82133913 0.81898956 -0.58505239
O -1.23596001 -0.42699333 -0.03473461
H 1.37838298 0.31299829 1.15891663
H 1.86253826 -0.74734036 -0.19409474
H -1.27208432 0.94703239 -1.57136649
H -1.13871465 1.62011873 0.09544603
