11

N -1.2168455 -0.8398281 -0.13697451
C -0.00080575777 -1.385429 0.2928243
C 0.9949311 -0.7334921 0.8683059
N 1.9457965 -0.14198264 1.3536687
C -1.3400822 0.32131627 -0.64288163
C -0.26474747 1.2762629 -1.0509589
O -0.53172934 2.413478 -1.3587264
H 1.9266032 -0.0076064146 2.3641133
H 0.06551713 -2.470135 0.28308004
H 0.7698951 0.8886076 -1.1121011
H -2.3485324 0.6788086 -0.8603498
