11

C -0.7309163 -0.1725404 -2.3121147
C -0.1631459 -0.12494772 -0.9716255
C 0.31859973 -0.08881389 0.13082142
C 0.9784326 -0.09868081 1.4396755
O 2.0837777 -0.56942254 1.6115222
N 0.24543455 0.4763215 2.4360526
H 0.009081762 0.15489347 -3.050902
H -1.6093413 0.47406057 -2.398329
H -1.0293267 -1.1950241 -2.5657568
H 0.61496997 0.40674832 3.374619
H -0.7175661 0.73740566 2.3060372
