11

C 1.0675164 0.65401536 -0.08905632
C -0.16289046 0.1114444 0.03939275
C -1.5231286 0.6390279 0.3234289
C 1.2876003 -1.4212543 -0.38347748
O -0.025406873 -1.2409148 -0.15107866
N 1.9936383 -0.34697515 -0.36264336
H -1.4666184 1.7228725 0.4608042
H 1.6159738 -2.436898 -0.5616566
H 1.3639367 1.6900755 -0.006268508
H -2.211171 0.4316703 -0.5018387
H -1.9394501 0.19693625 1.2323939
