10

O 0.21289012 2.2104578 0.39575577
C 0.11886519 0.88360345 0.16431548
C -1.0019238 0.19365825 -0.21495478
N -0.56947124 -1.117999 -0.31325287
C 0.7443698 -1.1402984 0.0021976803
N 1.1940771 0.060334057 0.2977466
H 1.1286563 2.377053 0.65216273
H -2.0185206 0.4898089 -0.41497615
H -1.1373622 -1.9076594 -0.5723805
H 1.3284194 -2.0489585 0.0033860484
