10

O 2.15561813 0.09099674 0.25355485
C -0.07133147 1.08848325 0.51723409
C -1.19088117 -0.54516880 -0.37735625
N -1.27872564 0.77115947 0.24976629
C 0.83424032 0.00546225 0.08246562
N 0.19349163 -0.96304402 -0.44732357
H 0.22257229 2.01910433 0.99283074
H -1.63575980 -0.49181534 -1.37707202
H -1.78472618 -1.25719065 0.20598918
H 2.55550198 -0.71798708 -0.10008893
