9

O 0.8720235 -0.2617509 1.2241697
C -0.55774605 -0.120905586 -0.80530864
C 0.7188965 1.0309951 1.3167365
O -1.6368767 0.5355711 -1.1563613
C 0.16472158 -0.8846636 0.141274
N 0.5668686 -0.52277714 -1.2457416
H -1.5053658 0.8813581 -2.0542576
H 0.0072871535 -1.9301213 0.38966402
H 1.3701912 1.2722943 2.1898246
