9

O -0.61138692 0.06044408 1.39645358
C -0.45829713 -0.75449891 0.22453602
C 0.26631371 -0.29941300 -0.90202531
O 0.33340666 0.40185640 -2.00766645
C -0.11914438 1.26550664 1.30301790
N 0.92490712 -1.12081448 -0.18662724
H 1.22237907 0.29484281 -2.38364208
H -1.22631389 -1.52226322 0.23691449
H -0.33186445 1.67433955 2.31903894
