9

O 0.92796034 -1.1278888 0.3101797
C -0.6316671 0.6528798 0.0072632027
C -0.33187136 -0.73723555 0.20628862
O -1.6771715 1.214376 0.6659462
C 1.8551217 -0.7205214 -0.5540916
N 0.047469273 1.0172032 -0.98153716
H -1.0666062 -1.5319349 0.096272744
H -1.9084314 2.0222352 0.18468933
H 2.785196 -0.7891134 0.06498892
