10

O 0.87196571 -0.72209679 0.92136238
C 1.25400903 -1.54610674 -0.06451400
C -0.21862592 -0.25096224 -1.44528633
N -0.30842351 1.03089874 1.86662667
O 0.68044172 -1.27124754 -1.23827798
C -0.59826276 0.56209504 -0.47421975
C -0.03307222 0.34511718 0.84699440
H -0.55041537 -0.22123857 -2.47805572
H -1.30245374 1.36900657 -0.61786488
H 0.20483720 0.70453411 2.68323516
