10

O 0.24009529 0.08866831 -1.4030362
C 0.048266336 -0.047320276 0.90970516
C -0.73518205 1.010485 0.69168484
N 1.261609 -1.7318267 -0.3269207
O -1.6924065 0.7610254 -0.53948814
C 0.55697924 -0.68936276 -0.32104596
C -0.5457911 1.1873548 -0.95596486
H 0.45709065 -0.34835452 1.8671638
H 1.5154245 -2.007861 -1.2755859
H -1.1060854 1.7771914 1.3534881
