10

O 0.8599886 0.31307235 1.1371288
C -0.4606214 -0.0025855827 0.79083526
C 0.36880183 -0.088870786 -1.4337779
N -1.355363 -0.094027705 1.6722208
O 1.6232982 0.22252758 -0.9632175
C -0.67540276 -0.20881057 -0.63165087
C 1.9174052 0.43249264 0.32195356
H -0.9821396 0.09308548 2.6009257
H -1.6679517 -0.45202297 -0.9828195
H 0.37198472 -0.21486048 -2.5115983
