12

N 1.22660401 1.67716911 -0.44355549
C -2.23961678 -1.02883122 0.09644926
C -1.07697243 -0.14023372 0.03234103
C 1.74470993 0.52373873 -0.31246510
N 1.32481568 -0.37794619 0.66146941
C 0.10445890 -0.70922867 0.79822494
N -3.15426894 -1.73602917 0.16004600
H -1.34461388 0.82503073 0.47242463
H -0.80983696 0.06116213 -1.01169870
H 1.76981385 2.22758874 -1.11243577
H 2.58397063 0.13313452 -0.89847332
H -0.12906403 -1.45555491 1.55767323
