12

N -3.3071356 -0.9784241 -1.046119
C -0.3003491 -0.7692825 0.6848904
C -2.303156 -0.49558076 -0.73044616
C 1.8177806 0.13322872 0.30638745
N 0.937706 -0.7159493 0.9714143
C -1.0344126 0.10694169 -0.31485724
N 1.6039567 1.3806998 0.18757948
H -0.90805715 -1.4948137 1.225809
H -0.40829498 0.3158713 -1.1902233
H 2.7098196 -0.39566886 -0.046981428
H 2.4309216 1.8389772 -0.20171528
H -1.238779 1.0740005 0.15426175
