11

O -0.31182719 1.06587646 -1.22859236
C -0.89021156 -0.23429261 0.97858290
O 0.54993300 -2.14366813 -1.20480274
C 0.06844099 -1.37341313 -0.44067457
C -0.04962928 0.12475210 -0.23739122
C 0.91665876 1.17898989 -0.51215262
O -0.62126094 -1.63882043 0.71199945
H -1.95382516 -0.01328108 0.88717228
H -0.50075515 0.06583774 1.95339369
H 0.97909036 2.02424199 0.17219803
H 1.81338612 0.94377721 -1.07973276
