11

O -1.1002673 -1.107205 1.068714
C 1.198083 0.8713804 -0.5457785
O 0.4654373 0.20947082 -1.5755184
C -1.274149 0.1683738 0.3913932
C 0.08850969 -1.3715664 0.442847
C 0.08828289 -0.026068779 -0.2567242
O 0.7712145 -2.338082 0.53655356
H 1.0347012 1.9462084 -0.47696137
H -2.1211388 0.13734788 -0.29426092
H 2.216793 0.5224514 -0.3972165
H -1.3674663 0.9876896 1.1069518
