11

O 2.3714077 0.810378 -0.3934361
C -0.54949754 0.6148546 0.98559374
O -0.6019615 -0.089933224 -1.4658203
C 0.038650617 -0.16257922 -0.19290516
C 1.2873609 0.677835 0.071205616
C -0.056416806 -1.5649607 -0.6165496
O 0.72405165 1.2929624 1.153498
H -1.338339 1.3207544 0.7233754
H -0.0780355 -0.94694823 -1.9015636
H -0.79791826 0.03176486 1.8728964
H -0.9993022 -1.9841279 -0.23629431
