11

N 0.29725394 1.17372509 1.88022260
C 0.07942987 -0.74790131 -1.12971753
C -1.15662429 -0.35843730 -0.83788338
C 0.02531293 0.53684162 0.82910453
C 0.99786114 -0.20531348 -0.07036511
O -1.25072611 0.40433337 0.30924198
H 1.51840406 -0.98170565 0.50089112
H 0.37332450 -1.34637013 -1.97921975
H -2.09929088 -0.53243277 -1.33817862
H -0.54048062 1.57510472 2.29352068
H 1.75553528 0.48215615 -0.45761664
