14

C -0.28287038 0.1049158 -0.16829443
N 2.1373985 2.0778713 1.5867167
C 1.0465086 1.7664672 1.0156951
O -1.2063831 0.870219 -0.37185374
N -0.2597108 -1.1950432 -0.5879465
C -1.4444447 -1.7947782 -1.1676577
N 0.8740566 0.4932512 0.5041823
H 2.1054423 3.040601 1.9065175
H -1.147689 -2.5620408 -1.8883498
H 0.4315612 -1.8142116 -0.19663595
H -2.0070055 -1.0161216 -1.6827397
H 0.17005993 2.3980389 0.86610806
H 1.6721658 -0.12127654 0.5892959
H -2.0890892 -2.2478921 -0.40503767
