14

C -2.3938107 -0.07709591 0.9731351
N -1.3521147 0.13645186 -0.013300752
C -0.035087213 0.039595205 0.34409887
O 0.35017148 -0.074713916 1.4923266
N 0.84373885 0.108314216 -0.7347142
C 2.215538 0.004340688 -0.59283763
N 2.965551 0.112465076 -1.6123638
H -2.037669 0.29435158 1.9339778
H -2.6491995 -1.139203 1.0826045
H -3.286917 0.47910175 0.67962885
H -1.5962065 -0.020528246 -0.97808206
H 0.5183585 0.30359203 -1.6720204
H 2.519545 -0.17219791 0.44054312
H 3.938102 0.005526511 -1.3429961
