14

C -2.56561952 -0.11483458 0.27474233
N -1.29388704 0.00722534 -0.40873366
C -0.13316726 0.08237883 0.30793863
O -0.08587951 0.19637531 1.51821537
N 1.01301704 0.04105997 -0.48330323
C 2.28812653 0.09635741 0.04914581
N 3.29762546 0.09334907 -0.72155635
H 2.28345607 0.13397841 1.13909270
H -2.83163265 -1.16223538 0.46090524
H -3.34884625 0.35223081 -0.32904469
H -2.49275327 0.40235167 1.23145499
H -1.24844891 -0.30181214 -1.36622081
H 0.96323104 0.03764406 -1.49294508
H 4.15477849 0.13593117 -0.17969135
