14

C -1.5747073 -1.491703 -0.26119706
N -1.9931744 -2.6329646 -0.6281474
C 1.157373 2.2115264 0.6339839
O -0.4040642 0.9288733 0.4759164
N 1.5776564 0.32239997 -0.15998882
C 0.32192287 0.02884911 -0.026081951
N -0.24037081 -1.1826907 -0.40410575
H 0.34369114 -1.8991528 -0.8084351
H -2.1557965 -0.67638934 0.17531349
H 2.2418425 -0.3120005 -0.587001
H -2.9937103 -2.6966848 -0.4654357
H 1.0703366 2.698135 -0.32832387
H 2.1744595 2.1152766 0.9953514
H 0.47454163 2.586525 1.3881516
