10

N -1.04500106 -0.27153753 -0.61194111
C 1.11564422 0.02239171 -0.81009723
C 0.87432398 0.22534320 0.49495117
C -0.58942806 0.04494285 0.74346368
C -0.13322886 -0.30851428 -1.56848931
H -0.80283018 -0.77421087 1.44109681
H 2.08762879 0.08438936 -1.28685115
H 1.58022385 0.47987061 1.27867887
H -1.06825263 0.95384738 1.12699794
H -2.01908010 -0.45652248 -0.80780959
