10

N -0.15958788 -0.74978215 -0.8447466
C 1.0595777 -0.28711817 -0.42072278
C 0.8368322 0.5949703 0.60786986
C -0.56990993 0.6657708 0.8108573
C -1.1578802 -0.1758376 -0.10128824
H -0.29927814 -1.4108944 -1.5894163
H 1.9751254 -0.6242923 -0.88478786
H 1.5945301 1.1339555 1.1598387
H -1.083995 1.268473 1.5464115
H -2.1954143 -0.41524503 -0.2840155
