9

O -0.48924514 -0.89137394 -1.22312257
C 1.74669947 -0.13614719 1.43837552
C 0.72389540 -0.23947594 0.81363582
C -0.53067175 -0.35972448 0.09613299
C -0.82162073 0.47661315 -1.07565505
H -0.06448080 1.17888206 -1.41993296
H -1.37016327 -0.72132085 0.68961244
H 2.65954941 -0.04662664 1.98274356
H -1.85396186 0.73917393 -1.30178984
