11

C -0.65084054 0.63317208 -0.21193218
C 0.58210984 -0.17404312 0.12451663
C 1.84378388 0.22762069 0.25462524
N -1.58538616 -0.46296584 -0.42780743
N -1.05045146 -1.63423563 0.04378232
N 0.16796495 -1.52545422 0.30193742
H -2.56302619 -0.36238235 -0.20053281
H -0.95429262 1.28372353 0.61820088
H 2.11593002 1.27085891 0.13316740
H -0.52727635 1.23481209 -1.11679952
H 2.62148458 -0.49110639 0.48084194
