10

N -1.3161427 -0.6403843 -1.1600193
C -1.2077519 -0.74700457 0.0915853
O -0.18205439 -0.21602376 0.77527493
C 0.7669346 0.47584635 -0.03237812
C 1.8190314 0.9798845 0.8532522
N 2.6749785 1.3969 1.5091512
H -2.158456 -1.1072649 -1.4880152
H -1.8807207 -1.2515745 0.790403
H 0.28704 1.3058536 -0.5588062
H 1.1971414 -0.19623217 -0.78044754
