10

N 1.200439 -2.6191509 -0.48864228
C 0.98775226 -1.5715088 -0.053102847
O -1.8992674 0.6804591 0.8914659
C 0.73528945 -0.2220656 0.47571874
C -1.3360493 0.92650515 -0.14978668
N -0.045267124 0.5826728 -0.4389435
H 0.1586799 -0.29484713 1.4010347
H 0.31575134 0.77618533 -1.3605584
H 1.6943991 0.25631666 0.69898534
H -1.8117273 1.4854338 -0.97617084
