9

O 0.9145897 0.64129955 1.9575914
C 0.315818 0.25050145 0.99094015
N -0.94025815 -0.3814427 1.0066836
N -1.1618993 -0.6080611 -0.26824802
N -0.36588204 -0.29115832 -1.2032874
C 0.7338081 0.32375717 -0.4836084
H 1.6624068 -0.22186908 -0.67383665
H -2.034993 -1.0686003 -0.5069084
H 0.87641007 1.3555734 -0.8193259
