9

O -1.9682151 0.42378506 0.07382644
C -0.65643257 0.13362762 0.030925082
N -0.110873915 -0.8965113 0.6563287
N 1.1748726 -0.7832233 0.32909936
N 1.4983104 0.22641966 -0.4481507
C 0.33889696 0.8436904 -0.66285866
H -2.397703 -0.2349285 0.6345822
H 1.8612828 -1.4399264 0.66254324
H 0.25986156 1.7270668 -1.2762958
