11

N -1.00856753 0.32717284 2.11899144
C 0.04268147 -0.19211147 1.48482671
O 1.76625317 -1.28718254 -0.47262416
N -0.07973255 -0.03233004 0.13410992
C 0.86859683 -0.54458951 -0.77405086
N 0.60952334 -0.13421600 -2.07202070
H -1.04063678 0.27040688 3.12162721
H -1.81041549 0.77956342 1.68183543
H 1.36187053 -0.36310746 -2.70549273
H -0.89939741 0.40836209 -0.29301991
H 0.18982424 0.76803172 -2.22418194
