10

N -1.6513227 1.5097145 1.9408598
C -0.84447956 0.26975408 -0.2277497
C -1.3030708 0.9680959 0.9832287
C 1.5257741 -0.49649486 -0.48473525
C 0.32607576 -0.6391923 0.06196185
H 2.3356164 -1.1858628 -0.2608173
H -0.5792363 1.0105069 -0.9886089
H 1.752596 0.31636426 -1.1719397
H -1.6901815 -0.30833378 -0.6180223
H 0.12822856 -1.4445522 0.76582277
