9

O -2.5739675 0.6753256 0.2877363
C -1.6293892 0.0996572 0.76140666
C -0.30054322 0.04643856 0.096992984
N 0.76171887 -0.5471408 0.54430354
C 1.6591299 -0.28168893 -0.45356247
N 1.1833811 0.42140234 -1.4386672
O -0.12587544 0.6445869 -1.076136
H -1.6608255 -0.43877843 1.7243977
H 2.686371 -0.61980253 -0.44647136
