9

O -1.17527933 1.31691085 0.73684659
C -1.56679199 0.39924555 0.08069873
C 1.07675047 -1.35780444 1.67551227
N 1.16612050 -0.73884007 0.68049105
C 1.29324206 0.01224013 -0.47318646
N 0.35113690 0.33655858 -1.25536347
O -0.88253327 -0.25145902 -0.88284423
H -2.55172248 -0.08323719 0.15485131
H 2.28907716 0.36638553 -0.71700565
