9

O -1.7521911 0.6967437 -0.32070747
C -1.5569705 -0.44283357 -0.022086713
C 1.2545509 0.26497087 -0.50241685
N 0.5017841 -0.5403608 -1.1263788
C 1.051361 0.93433684 1.9575547
N 1.142095 0.61098015 0.8313314
O -0.44354096 -1.1617851 -0.27392954
H 2.0510213 0.74116564 -1.0640464
H -2.24811 -1.1032177 0.5206796
