10

N -0.9791091 0.29595658 1.5318421
C -0.24133594 -0.063135214 0.47134024
O 0.23819414 -1.2828585 0.54645056
N -0.07231161 0.80019224 -0.5176911
C 0.67112786 0.3688341 -1.5663934
O 1.2149659 -0.73559695 -1.6963549
H 0.77825856 1.1122643 -2.370194
H -1.0473979 -0.32155824 2.3220985
H -1.3125744 1.2422802 1.5849549
H 0.7501823 -1.4163785 -0.30605343
