12

N -0.27127978 -0.011088967 -2.051257
C -0.15762076 -0.038750388 -0.65440273
C -1.0297097 -0.31422722 0.33350456
N -0.35491404 -0.10339823 1.5490038
C 0.9331498 0.3325485 1.3315502
O 1.7713507 0.662953 2.147611
N 1.0509993 0.31483248 -0.051978726
H 0.28718 -0.73040754 -2.497641
H -1.2339107 -0.11873823 -2.341007
H -2.0458193 -0.6725383 0.29222116
H -0.7654502 -0.08896706 2.4649584
H 1.8160242 0.767782 -0.52256304
