11

N 1.4752729 0.37103552 1.3571671
C 0.4378475 0.20035154 0.439811
N -0.27864045 1.2327589 0.023864135
N -1.2157495 0.6845401 -0.7783532
C -1.1004438 -0.65368885 -0.88946605
C -0.02882885 -1.0229276 -0.10567337
H 2.2873626 -0.19575411 1.1540823
H 1.7321539 1.3451284 1.4459839
H -1.8907299 1.2888966 -1.2147
H -1.7770044 -1.2351836 -1.4977609
H 0.35875973 -2.0151567 0.06504511
