11

N -0.026629876 -1.4429129 -0.21725678
C 0.79903406 -0.9118319 0.866904
N -0.63990057 -0.4608072 -0.82380885
N -0.56516975 1.8915331 -0.9268617
C 0.7336913 0.56501025 0.7490214
C -0.17277716 0.6943123 -0.33017576
H -0.42602485 -2.3669198 -0.29021057
H 0.3876962 -1.234182 1.8321799
H 1.828686 -1.2812045 0.7980856
H -0.43727747 2.6800003 -0.3101576
H -1.4813278 1.8670021 -1.3477197
