11

N -0.13718342 -1.16976926 -0.86181656
C 0.79657098 0.11224482 0.87832132
N -0.45823811 2.12999247 0.09765772
N -0.69805972 0.01021551 -0.90171243
C -0.13330426 0.77547275 0.04253943
C 0.75966651 -1.24889778 0.29082018
H 1.75735153 -1.59191487 -0.00636511
H -0.25390382 2.53043267 1.00112662
H -1.38714567 2.34952187 -0.22792849
H -0.60400487 -1.93151303 -1.33133920
H 0.35825058 -1.96578495 1.01869656
