9

N -0.43251065 -1.88586455 0.07203923
C -0.00419271 -0.74754064 0.37729108
O -0.81825741 0.31358846 0.76898211
C 1.42084391 -0.48258718 0.46786004
O -0.15272906 1.34293903 -0.98140661
C -0.89974016 1.46893444 0.10498290
N 2.55347260 -0.27973664 0.56456004
H -1.45201307 -1.90470539 0.09517143
H -0.21487300 2.17497259 -1.46948051
