10

O 0.21322717 2.2102695 0.3968001
C 0.117579326 0.8827582 0.16440909
C -1.0031312 0.1946506 -0.21452409
N -0.5685776 -1.1168265 -0.31482908
C 0.7442199 -1.1396598 0.00014796718
N 1.1945131 0.05969772 0.29619342
H 1.1300503 2.3748794 0.6540116
H -2.019069 0.4905005 -0.41347668
H -1.1373209 -1.9069043 -0.570318
H 1.328509 -2.049365 0.0015857238
