10

O -2.227556 -0.97724664 0.2367558
C 0.18670349 1.03333 -0.82438934
C -1.2091794 -0.37929899 0.0031313745
N 0.965449 0.36646527 0.061591372
C 0.15855528 -0.67964965 0.651088
N -1.0612652 0.6936768 -0.89780194
H 1.9687005 0.40078 0.07712227
H 0.6185284 1.8301926 -1.4239992
H 0.5023016 -1.6813489 0.37511623
H 0.09776254 -0.6069004 1.7413856
