9

O 0.147043 -1.7788225 0.76813954
C 0.044053886 -0.54606646 0.18801452
N 0.95840085 0.8931248 -1.2755513
N -1.769954 1.0875683 0.8884163
N 0.9585758 -0.2758134 -0.8325727
C -0.85556734 0.3297005 0.6152894
H 1.6548778 0.885113 -2.032013
H -1.58372 1.7857934 1.6082594
H 0.44629014 -2.3805976 0.07201786
