9

O -1.9805505 -0.09432089 0.40302253
C -0.08791023 0.5388463 -0.99275374
N 1.5164781 -0.34191886 0.59896314
N 0.9889327 0.76704127 -1.5381324
N 0.31209612 -0.4677638 0.94808775
C -0.67129314 -0.018113999 0.1251585
H -2.0609565 -0.44011208 1.3008168
H 2.0748324 -0.72334933 1.3695529
H -0.091628596 0.7796913 -2.2147157
