12

C 0.52076372 -0.85410397 -1.96365165
C -0.10051846 -0.83402935 -0.59031786
O -0.74284967 -1.76073540 -0.13779909
N 0.15884361 0.36952425 0.08328753
C -0.37399779 0.45364402 1.25812459
N -0.20796517 1.55071403 2.00935844
H 0.29069268 -1.79625198 -2.46312506
H 0.14331933 -0.01013548 -2.55078332
H 1.60457557 -0.72350722 -1.87756191
H 0.32891574 2.31954493 1.64095800
H -0.97078374 -0.35250913 1.68493019
H -0.65099596 1.63784544 2.90657957
