12

C 0.5804983 -0.5927336 -0.6048741
C 1.0387298 -0.06969422 -1.9423695
O 0.8488064 -1.7061164 -0.19924343
N -1.3619499 0.75938725 2.013432
C -0.6211619 -0.04703596 1.2411649
N -0.17766593 0.35761067 0.09625851
H -1.5821341 1.6857486 1.684138
H -1.7415632 0.43810508 2.8860977
H 1.6137941 -0.83539647 -2.4649117
H 0.16953582 0.22678572 -2.5390873
H -0.4135075 -1.0458894 1.625054
H 1.6466184 0.8292288 -1.7956591
