11

O 1.0675293 -0.5916118 1.5877236
C -0.8574253 -1.2124499 -0.97371936
C 0.34915257 1.2536625 0.2568689
C 1.058931 0.6052978 1.3613505
N -0.33231992 0.5209373 -0.5251798
C -1.101006 -0.00035537887 -1.5104175
N -0.57688093 -2.248581 -0.4098879
H 1.6199167 1.2973324 2.0203044
H 0.020534461 -2.353118 0.40887025
H 0.41465926 2.3362586 0.132322
H -1.6630908 0.39262757 -2.3482354
