11

O 0.30821917 -1.33024203 1.94566255
C 0.13818588 -0.68806447 0.77575602
C -0.10687519 -0.32207741 -1.35854035
C -0.15058551 1.00863141 -0.65958134
C 0.00015225 0.77867015 0.64602165
N 0.08407295 -1.32787562 -0.32832577
H 0.30830510 -0.68853997 2.66613471
H -1.03344866 -0.52282868 -1.91073942
H -0.28033589 1.96694208 -1.14731259
H 0.02090917 1.49704515 1.45935967
H 0.71140035 -0.37166048 -2.08843481
