12

C -0.5918701 0.054633494 0.1347416
N -0.18926021 0.3843401 -1.1019256
C 0.6373402 -0.7618766 0.5544993
N -1.6294675 0.49365622 0.81105906
C 1.13242 -0.31464982 -0.8796964
O 1.127211 -0.12422803 1.5654035
H -2.2711463 1.1881562 0.4502869
H -1.6237134 0.283013 1.8009573
H 1.9322399 0.4194601 -0.78470504
H -0.2893379 1.3117981 -1.5015756
H 1.3400948 -1.0738012 -1.6374851
H 0.42548996 -1.8605016 0.5884403
