12

C 0.72610384 -1.1602225 -0.55717355
N -0.49830014 1.7082067 0.81302977
C -0.5898036 -0.89635956 0.16886929
N 1.0225748 0.30267975 -0.5175396
C -0.2694945 0.5279466 0.103144236
O -1.334806 0.013828203 -0.66108847
H -1.1461946 -1.5120587 0.86357135
H 0.6149971 -1.5823102 -1.5617728
H -1.344427 1.6678703 1.3599687
H 0.29527658 1.9267068 1.4051774
H 1.0663908 0.73520243 -1.4365436
H 1.4576832 -1.7314899 0.02035728
