11

N 0.32724294 -0.93185043 1.6731352
C 0.15508513 -0.23341146 -0.9042625
C 0.5686286 -0.26718143 0.5133131
N -1.2206758 0.12543832 -1.2665373
N -1.5780698 1.2206707 -0.81194067
C 1.0727379 0.7061877 -0.19810812
H 1.6316495 1.6188507 -0.28725928
H 0.9179305 -0.6927546 2.4536858
H 0.51424986 -0.9873976 -1.6097382
H 0.15459684 -1.9228884 1.5837244
H -2.5433755 1.3643363 -1.1460123
