11

N -0.73387694 -0.76021504 1.5614591
C -0.19519684 -0.13152087 0.42256385
C -0.12956122 -0.61044383 -0.869516
N 0.40426537 0.39477038 -1.6182767
N 0.69370484 1.4839174 -0.9077742
C 0.33183476 1.178823 0.33156848
H -0.22324021 -0.5323971 2.4040482
H -0.7715496 -1.7651635 1.4608495
H -0.4162749 -1.558368 -1.3006301
H 0.5856759 0.39412484 -2.607737
H 0.45421878 1.9064728 1.1234448
