10

N -0.26265255 0.41468564 0.54247624
C 0.63129556 0.04281443 1.5039655
O 1.7541629 -0.35241458 1.2848935
C -0.76121616 -0.7992548 -1.4929304
C 0.044259258 0.26021686 -0.8641486
N -1.4183104 -1.6121758 -1.9837629
H 1.1025668 -0.0018654655 -0.9273092
H 0.22144537 0.16556273 2.5238137
H -1.1921322 0.6858207 0.8201793
H -0.11941874 1.1966102 -1.4071773
