10

N 0.05399312 0.42689343 0.59167368
C -0.17437143 -0.53589463 1.53123837
O 0.06303919 -1.71345667 1.38286918
C 0.51821110 0.08154054 -0.73568534
C -0.51893663 0.29671061 -1.75777332
N -1.32927570 0.49631731 -2.55591973
H -0.58478631 -0.11492191 2.46797540
H -0.22070735 1.37555400 0.78953322
H 0.78764298 -0.97645233 -0.70832113
H 1.40519108 0.66370961 -1.00559055
