10

N 0.8041143 -0.16121402 1.6808188
C -0.37921137 0.13931936 1.3651843
O -0.7902823 0.21048532 0.088707455
C 0.21825872 -0.086814865 -0.87330174
C -0.38593826 0.04113379 -2.2024653
N -0.81823444 0.12865892 -3.2725093
H 0.914571 -0.15687935 2.6924548
H -1.2195278 0.38093185 2.022644
H 0.597151 -1.1025221 -0.72839594
H 1.0590992 0.60690105 -0.7731373
