10

N -1.7310367 1.9680064 0.82717586
C -0.38404933 -0.2389229 0.98160464
O 1.4072849 0.35946533 0.22971727
C 1.1208857 -0.07791413 -0.9174488
C -1.1136261 0.99169374 0.8755788
N -0.025201252 -0.65818983 -1.0470203
H -0.34297073 -1.0004932 -1.9456261
H -1.0178223 -1.1131731 0.8908707
H 1.8259001 0.05642771 -1.7455759
H 0.2606358 -0.28690004 1.850724
