9

N -0.23202118 0.84184915 -2.684967
C -0.19010909 -0.22057448 0.5426894
C 0.6828395 0.3026745 -0.4975153
N 0.12395518 -0.5431831 1.728597
N 0.18736011 0.58947545 -1.6715127
O -1.4708462 -0.35202196 0.12590136
H -1.9504522 -0.69498336 0.8952231
H 1.7387319 0.4720271 -0.36004293
H 1.1105419 -0.3952632 1.9216273
