9

N -0.88831586 -0.57591283 -1.2246343
C 0.2325435 -0.14651029 -0.5537596
C -0.052191075 0.37156954 0.78665876
N 0.9616615 0.8032464 1.4833905
N 1.8395108 1.1732211 2.088223
O 1.3465391 -0.15745375 -1.0422093
H -0.7035064 -1.0932437 -2.0714884
H -1.7080089 -0.84414446 -0.70505744
H -1.0282326 0.4692279 1.2388772
