12

C 0.31448346 0.46666482 -2.329942
C 1.0698972 -0.27802217 -0.20801313
N 0.064485006 0.21186364 -0.9872407
N 0.6833668 -0.46509162 1.0550297
C -0.6170295 -0.21377364 1.6708311
O -0.5217017 0.9010382 -3.0817816
H 1.402835 -0.8222755 1.6621152
H -0.87734085 0.8511794 1.6230825
H -0.8918675 0.42950016 -0.70114243
H 1.3523898 0.22677583 -2.6059172
H -1.4049919 -0.7989325 1.1817214
H -0.5745257 -0.5089267 2.721257
