12

C 0.38639352 -0.9549989 -1.3378024
C -0.64466614 0.073638126 -0.32925543
N -0.21823089 0.51833344 0.91773576
N -1.1461967 -1.1607953 -0.38537046
C 0.25682932 1.8021079 1.1116339
O 0.5177335 2.2602422 2.1980195
H -0.3557269 -0.028128762 1.7639965
H 0.6417151 -1.9986866 -1.1351899
H -1.1292462 -1.6619825 0.525941
H 1.2876383 -0.36729157 -1.129551
H 0.36226282 2.340625 0.15605734
H 0.041494288 -0.82306314 -2.356215
