12

C 1.0725037 0.19252749 0.78027314
C -0.31709066 0.5928426 0.35149848
N -1.0188459 1.5470465 0.809713
N -0.90310484 -0.16923429 -0.668244
C -0.3926606 -1.2474835 -1.3415878
O -0.99347967 -1.8385742 -2.208143
H 1.4137377 0.8612209 1.5752147
H 1.7815722 0.26038235 -0.05127789
H 1.0935974 -0.8328701 1.1628648
H -0.5201622 2.043883 1.5418655
H -1.8395302 0.12385514 -0.9301531
H 0.6234631 -1.5335962 -1.022024
