10

O 1.3224622 0.79512036 -1.28697
C 0.57688344 0.21317236 -0.3240675
N 0.7510197 -1.1538763 -0.006741403
C -0.9705657 0.27883407 0.8892233
C -0.6288953 -0.65949434 -0.24674915
N 0.07925249 1.018417 0.85943925
H -1.7892007 0.3382399 1.6035161
H -1.249257 -1.1634412 -0.977389
H 0.94156885 1.6612415 -1.4846715
H 0.96673155 -1.3282133 0.97440976
