10

O 1.75743750 0.57763576 -0.78432451
C 0.67137044 0.06537624 -0.16806083
N 0.32470448 -1.29553207 -0.33417103
C -0.73555217 -0.27299935 -0.52512996
C -1.00197330 0.35129190 0.82650330
N 0.20820472 0.61720984 1.16524368
H -1.30641232 -0.27174240 -1.44532711
H 0.25053238 -1.81485508 0.54011994
H -1.89536149 0.50322859 1.42873192
H 1.72704995 1.54038663 -0.70358532
