11

O 1.7529566 -0.9168944 -1.8327149
C 0.73187435 -0.26626822 -1.9170514
N -0.034178555 0.08336059 -0.8549711
C 0.33966193 -0.32361832 0.49250218
C -0.5778776 0.25084978 1.4732826
C -1.3424939 0.7263393 2.2674286
H 0.323197 0.10646053 -2.8755102
H -0.87847763 0.6169983 -0.99372596
H 0.3316401 -1.4179332 0.5611766
H 1.366719 -0.00056341104 0.6945428
H -2.0130217 1.1412691 2.9850407
