11

O 0.062485073 0.39582115 -1.6003827
C 1.1900398 -0.356326 0.27209243
N -0.035436466 -1.2126213 0.21401334
C 0.3746637 0.79356736 -0.38472208
C -0.87735337 -0.1390151 -0.2464607
C -0.6617392 1.2821486 0.45084754
H -1.356433 1.9242187 -0.10057007
H -0.34897158 -1.4964331 1.1385566
H -1.8647025 -0.306707 -0.6552687
H 1.5357168 -0.14534828 1.2841849
H 1.9817306 -0.739305 -0.3722904
