11

O 0.65451183 -1.19056630 -0.55029471
C 0.24635680 0.03260827 -1.14821270
N 0.73308890 1.26224110 -0.59291559
C 0.14586132 -1.19116732 0.71759183
C -0.60485061 -0.13105241 1.01625415
C -0.59267227 0.77395988 -0.17237496
H 0.13140999 -0.05397783 -2.22132507
H -1.44061123 1.40720448 -0.41711117
H 0.42008512 -2.05474348 1.31019452
H 1.44236822 1.09885821 0.11743265
H -1.13554847 0.04663544 1.94076097
