11

C -0.7297419 -0.17238508 -2.3160055
C -0.16351213 -0.12392362 -0.969783
C 0.32085362 -0.089455605 0.1335558
C 0.97847825 -0.09890744 1.440176
O 2.0863125 -0.5646383 1.6107314
N 0.24394184 0.47277495 2.440241
H 0.009114002 0.15185975 -3.0535595
H -1.6064218 0.47702184 -2.400084
H -1.0330946 -1.1929561 -2.5645776
H 0.6107023 0.40390047 3.3778527
H -0.7166319 0.7367092 2.3014522
