11

C 1.4636806 0.6530138 0.62890244
C -0.2648928 0.9792179 -1.4488144
C -1.0184484 -0.07386816 -0.017570997
C 0.40370914 0.66400594 -0.40935192
O -1.5748055 0.3305187 0.9736978
N -1.2400073 -1.2931172 -0.5866648
H -2.0687697 -1.782136 -0.2871714
H 2.3263116 1.2162272 0.2615425
H 1.7808117 -0.36790866 0.8632126
H -0.90149975 -1.4541302 -1.5206301
H 1.0939108 1.1281767 1.5428481
