10

N 0.74571851 -0.94662902 1.49610795
C 0.09937078 0.17037208 1.00493327
O -0.27102824 1.08987040 1.68527693
N -0.02848400 0.12108292 -0.40332830
C -0.73844056 1.03218481 -1.10598546
O -0.58698311 0.66486903 -2.38945124
H 0.73219330 -1.00218790 2.50423285
H 0.49135921 -0.60310969 -0.89700782
H 0.64968341 -1.82644309 1.01315199
H -1.09338928 1.29999044 -2.90793013
