10

N 0.6026684 -0.81015784 1.506607
C 0.01558045 0.17031416 0.7442766
O -0.3993413 1.2187097 1.1858666
N -0.099651374 -0.17536102 -0.60648686
C -0.64024603 0.6719102 -1.5606157
O -0.76989406 0.34493062 -2.7152114
H 0.8292126 -0.51584595 2.4453487
H 1.2540541 -1.4503803 1.0802901
H 0.13319458 -1.1034327 -0.9321542
H -0.92557734 1.6493131 -1.1479208
