10

O 0.2164204 2.2102706 0.39486134
C 0.11809224 0.8835195 0.16352728
C -1.0041924 0.19349279 -0.21449995
N -0.56984127 -1.1195792 -0.31396496
C 0.74380225 -1.139307 0.0007621158
N 1.195572 0.05955814 0.29568815
H 1.132859 2.3782432 0.6525074
H -2.019584 0.49195847 -0.41019478
H -1.1396593 -1.9089409 -0.57044685
H 1.3265312 -2.0492156 0.0017603335
