10

O 0.05745543 1.8900702 -1.0465335
C 0.98023117 1.1447556 -0.8122807
C 0.80810726 -0.26443312 -0.35143676
N -0.30325735 -1.0791634 -1.0241563
C -0.4813756 -0.6705482 0.15388697
N -1.3203936 -0.7074214 1.1999197
H 1.715544 -0.80640715 -0.08875434
H -1.2267199 0.03421138 1.8765057
H 2.0336132 1.4766883 -0.9214699
H -2.2632043 -1.017752 1.0143193
