10

O 0.28829590 2.12017870 -0.30434614
C 1.01384145 1.35056552 0.28145459
C -0.32913120 -0.69145708 -0.34438112
N 0.59740949 -0.71781658 -1.19720346
C 0.89010793 -0.13408601 0.19025988
N -1.59821488 -1.05709070 -0.10936203
H 1.82792030 1.71316781 0.94290037
H -2.08132437 -0.55688982 0.62068377
H -2.15442323 -1.30755739 -0.91406280
H 1.54551873 -0.71901445 0.83405701
