10

O -1.9342586 -1.4180838 0.31466854
C -0.5109541 0.26840782 -0.4585151
C -1.6373905 -0.5793465 -0.5366825
N 0.1190368 -0.88617384 1.3663495
C 0.5574553 -0.13226943 0.45606288
N 1.8217894 0.38473555 0.3313814
H 1.9134263 1.1758494 -0.28761297
H 2.3858252 0.41356927 1.1637706
H -2.2259367 -0.4956897 -1.4685149
H -0.48899317 1.2690011 -0.8809074
