10

O 1.3169692 -0.91551673 0.49050093
C 0.40573314 0.13559423 0.36408567
C 0.008020032 0.4476568 -1.0787851
O -1.3894546 0.18540528 -0.760502
C -1.0838838 -0.20609356 0.50663686
O -1.8047642 -0.6600015 1.3387408
H 1.3265147 -1.2017887 1.4128628
H 0.68553984 1.0215197 0.9510616
H 0.39119378 -0.27874222 -1.7983333
H 0.14413184 1.4719667 -1.4262682
