10

O 0.88528258 -0.59353118 0.76077422
C -0.13221093 0.35509135 0.67078735
C -0.43203566 0.09995530 -0.73446032
O 0.16850712 1.34571018 -0.26990011
C 0.68154850 -0.93015494 -0.64950727
O -0.73599568 0.67687434 1.82330807
H 0.34533147 -1.96476845 -0.74904418
H -1.05702993 1.58471429 1.75107282
H 1.58297951 -0.73515000 -1.23470222
H -1.30637703 0.16125911 -1.36832830
