11

N 0.56481063 1.4562962 -1.1158826
C 0.97447336 -0.66028845 0.13939665
N -1.1098859 -0.90431017 0.7660289
N -1.1227136 0.33635673 0.0152231585
C 0.12617965 0.43023872 -0.33545443
C 0.2667639 -1.5658286 0.8602354
H -1.7666076 -1.5566055 0.33406627
H -1.457814 -0.7303332 1.7093787
H 1.5473784 1.6718078 -1.0804071
H 2.0362413 -0.71877444 -0.07306178
H -0.05882599 2.241441 -1.2195231
