11

N -0.54364467 0.123188876 -1.4897076
C -0.11827869 -0.19321841 0.53521574
N -0.2246161 -0.6793718 1.8150408
N -1.0553777 -0.45142308 -0.36086163
C 0.98144686 0.5426686 -0.010952092
C 0.70724607 0.8648808 -1.3245223
H 0.44999126 -0.2545971 -2.0691688
H 1.8826382 0.8087007 0.5250191
H 0.27886447 -0.16433783 2.5194926
H -1.1984484 0.34455687 -2.22918
H -1.1598213 -0.94104755 2.089625
