11

N -0.49313552 -1.49919755 -0.38163841
C 1.10739145 -0.20627306 0.36897985
N -0.17047864 1.91153779 0.04431791
N -1.06447119 -0.16861887 -0.46078435
C -0.08015244 0.55403957 -0.01311894
C 0.93385961 -1.53691749 0.16964035
H 2.00634772 0.25804790 0.75910038
H 0.44513587 2.38540347 0.68432828
H -1.09215842 2.30615113 -0.06009977
H -0.50387167 -1.91737971 -1.31350359
H -1.08846698 -2.08679282 0.20277844
