13

C 0.5840563 -1.5838759 -1.1679249
N 0.22869752 -0.6413861 -0.12747477
C -0.052300643 0.66107804 -0.3797623
O -0.07364353 1.1711284 -1.4863081
C -0.33611292 1.476189 0.87960714
O -0.5637832 0.6935092 2.038468
H -0.111535855 -2.4288127 -1.18209
H 0.53135675 -1.0571984 -2.1222947
H 1.6012388 -1.9616256 -1.0236313
H 0.26710322 -0.9141599 0.84474677
H -1.1667663 2.156549 0.656077
H 0.5503193 2.0871484 1.0837487
H -1.4586295 0.34145668 1.9868385
