13

C -0.31118165 -1.49005093 0.85092409
N 0.32189462 0.46169698 -0.40146954
C 0.43015235 1.86180598 -0.75005730
O 0.24399001 -2.19323021 -0.24922730
C -0.41987701 0.01848985 0.64121658
O -1.10223293 0.72018509 1.36733537
H -0.44119757 -2.29525801 -0.91962526
H 0.10619748 2.03384139 -1.78111395
H 0.87050504 -0.23198669 -0.88893552
H 0.36244343 -1.65571016 1.69913000
H -0.21673323 2.41646104 -0.06889060
H 1.45981510 2.21617728 -0.63318650
H -1.30377569 -1.86242149 1.13389996
