13

C 0.12546507 -0.6973941 1.5934421
N 0.11174395 0.097049266 -0.67531675
C -0.1264138 0.4446079 0.6116704
O 0.22160026 -1.9767324 0.98758626
C 0.0071542324 1.0324305 -1.7742532
O -0.4894033 1.5457743 0.9870442
H -0.33488178 1.9820318 -1.3602967
H 0.44822717 -0.84216934 -0.8316528
H -0.7120452 0.680068 -2.5200505
H -0.65117896 -0.6528083 2.367273
H -0.6702067 -2.286954 0.7932463
H 1.090393 -0.50774974 2.0767806
H 0.97954625 1.1818461 -2.2554724
