11

C -1.5382124 -0.69457924 0.42506632
C -0.31644073 -1.1301208 -0.25348592
C 0.6442022 0.011960708 -0.6196661
C 0.6756774 1.216718 0.28614444
O 1.3558658 -0.117924675 -1.5846089
N -2.493135 -0.32668695 0.9577432
H -0.562293 -1.6828021 -1.165349
H -0.27535406 1.7552884 0.216666
H 0.22868495 -1.8156469 0.40777647
H 1.4958909 1.8750896 -0.0018714007
H 0.7851143 0.9087039 1.3315848
