11

C -0.72966385 -0.1716798 -2.315184
C -0.162075 -0.12070601 -0.97053933
C 0.31890786 -0.08378691 0.13094103
C 0.97616476 -0.09859321 1.4447422
O 2.0837665 -0.57107264 1.6068118
N 0.24686462 0.47090995 2.4403815
H 0.009270421 0.14733382 -3.05542
H -1.6058095 0.4784059 -2.4015126
H -1.0344846 -1.193897 -2.562721
H 0.61306846 0.40702775 3.378712
H -0.7160094 0.73605824 2.303788
