11

C -0.77246886 0.8776534 1.5450939
N 0.58330244 0.51901007 1.1775612
C 0.8361504 -0.053114377 0.09777317
O -0.14505899 -0.386981 -0.8403663
C 0.25270697 -1.0257641 -1.9645491
O 1.3780724 -1.3334478 -2.2407773
H -0.7916579 1.9520239 1.7502935
H -1.01774 0.3624542 2.4791687
H -1.534292 0.64157975 0.79284054
H 1.8401226 -0.33643243 -0.2043312
H -0.6291371 -1.2169816 -2.5927074
