10

O 0.65282094 -0.05635142 2.2321222
C 0.2654116 -0.07888027 0.96055293
C -0.0067559215 0.95803607 -1.0238317
N -0.60405695 -1.1691425 -0.7930497
N -0.51427287 -0.08054075 -1.6216558
C -0.27421495 -1.3367149 0.48375466
N 0.40342066 1.0217173 0.2606673
H -1.0002391 -1.9544269 -1.2945491
H 0.9837491 0.8367574 2.417479
H 0.09413759 1.8595458 -1.6214898
