9

O 0.50290269 -1.61055486 -0.26588330
C -0.80435723 0.39335127 -0.25271132
C 0.12961157 -0.49154690 0.47134085
C 2.23619890 0.86901419 1.20945226
C -1.56856931 1.07882021 -0.87390448
N 1.27873940 0.26706155 0.88692355
H -0.34644158 -0.88135121 1.37461836
H -2.25179106 1.69339461 -1.41977393
H 0.82370669 -1.31818882 -1.13006161
