10

O -0.7149873 1.3489763 1.3613421
C 0.74578995 -0.8574709 0.13383321
N -0.9167296 0.20335357 -0.8994724
C 0.10794496 0.6923843 0.5732194
C -0.14954413 -0.8657128 -0.9382356
N 1.3317938 0.5012628 0.5323219
H -0.17663592 1.6802888 2.1015031
H -1.2349817 0.6126868 -1.7771703
H -0.18567787 -1.6126264 -1.7285453
H 1.1930279 -1.7031425 0.6412037
