10

O -1.9645698 0.99019635 -0.18936396
C -0.80661213 0.35108685 0.03996442
N -0.47636142 -0.29875433 1.1174917
C 0.800695 -0.7645084 0.85724634
C 1.2168175 -0.38356036 -0.3802522
N 0.15602832 0.34723896 -0.9083763
H -2.4912558 0.8650276 0.6137781
H 1.3378978 -1.3499899 1.590694
H 2.129455 -0.5469373 -0.9319568
H 0.097905345 0.7902003 -1.8092252
