9

O -0.12869792 -0.15291955 -1.9791934
C -0.21558632 -0.02704396 -0.638785
C -1.1141242 0.88085765 0.039050624
O -0.5328981 0.88730514 1.3006102
C 0.6198435 0.16487171 1.2763858
N 0.8946782 -0.4075046 0.17145717
H -1.1946957 -0.5999145 -0.20424043
H 0.4902316 -0.87041485 -2.1662245
H 1.1812493 0.124763116 2.2009397
