11

O 1.7189462 -0.73930305 1.6546286
C 0.38755786 1.1150022 0.6019828
C -0.16116808 0.49690557 -0.7002543
N -1.0935123 0.6633475 0.40229765
C 0.512513 -0.8533755 -0.5490333
C 0.99364334 -0.27635348 0.8146801
H -0.39196995 1.0179167 -1.6238407
H -1.5165862 -0.15142542 0.8346033
H -1.7131143 1.4629487 0.3578559
H -0.09613552 -1.7633972 -0.5636699
H 1.3598257 -0.972266 -1.2292501
