11

O 1.6548678 -0.428623 1.6305231
C 0.86779183 -0.23717703 0.75098497
C 0.6012366 0.8975548 -0.22041576
N -0.25573987 -0.045893863 -0.99949
C -0.7982261 1.3448422 -0.12216871
C -0.1700303 -1.1197177 0.025665294
H 0.28290662 -2.0296524 -0.37819356
H -1.117476 -1.3504343 0.5182126
H 1.3814301 1.4932021 -0.686899
H -1.298244 0.91384447 0.75834215
H -1.1485165 0.56205475 -1.2765613
