13

C -0.4909426 -1.3057243 -0.34285495
C 0.034604423 0.5978611 0.55686635
O -1.1993076 0.97015417 0.8106131
C 0.35920677 -0.14245476 -0.7077145
O -0.05780534 0.6205801 -1.8336769
N 0.9465796 0.88681847 1.465256
H -0.8739077 0.2242698 -2.1454072
H 0.66075337 1.2860179 2.3488576
H 1.922457 0.70592415 1.2977594
H 1.4510711 -0.2858458 -0.78986096
H -1.1035036 -1.6945475 -1.1586735
H 0.026758272 -2.104638 0.18784052
H -1.6759635 0.24158464 0.31099498
