13

C 0.19930579 -1.5204694 -0.59804404
C -0.20556596 -0.055794895 -0.58503914
O -1.5726093 0.1331772 -0.23240109
C 0.73725253 0.7678531 0.30223522
O 1.9436467 0.6189968 0.26251975
N 0.097567536 1.6548394 1.1079236
H 1.2477012 -1.6180037 -0.8857417
H -0.42889524 -2.0762038 -1.3001246
H 0.08344077 -1.9642993 0.39972445
H -0.11235404 0.35969457 -1.5936503
H -1.753572 -0.4322593 0.5285799
H -0.8881624 1.8097699 0.9725872
H 0.65224427 2.322699 1.6214309
