10

O 1.78320531 1.17259753 0.83569650
C 0.85625285 0.40279676 0.46192517
C 1.40028793 -0.59610175 1.26803520
C -1.22594637 -0.33604191 -0.56521957
N -0.21178380 0.66637195 -0.28574474
H -0.98378220 -1.23305469 0.01371231
H 2.19109707 -1.12854862 0.71837308
H -2.21205611 0.01984670 -0.25071409
H -1.25095682 -0.59375010 -1.62862054
H -0.34631771 1.62588396 -0.56744320
