10

O -0.8472318 1.3528463 1.6447492
C -0.33160058 -0.41534725 1.9082936
C -0.3683739 0.49513805 0.85318696
C 0.3199364 -0.55423623 -1.2352347
N -0.18733767 0.56698906 -0.46258193
H -0.5171491 1.4015871 -0.9238706
H 0.40569994 -1.4157473 -0.565249
H 1.3039297 -0.33389968 -1.6607575
H -0.37769803 -0.81183255 -2.038312
H 0.59982526 -0.28549743 2.479776
