12

C -0.6488222 0.34833965 -0.11965058
C -1.7180032 1.1128699 -0.29228324
O 1.641827 -1.7971207 0.18402927
N 0.39913306 -0.08320004 -0.96926373
C 1.1354831 -0.5224046 0.21827607
N -0.092173345 -0.32690632 0.9891092
H -2.3892717 1.304126 0.53573185
H 0.8175099 0.57317096 -1.6136128
H 1.9611973 0.13802114 0.5128439
H -1.9347593 1.5296037 -1.2682065
H -0.07996095 0.0948759 1.9067942
H 0.9078406 -2.3713756 -0.08376775
