12

C 0.6176478 -0.93261796 -0.973312
C -0.46848294 0.76989275 0.99560446
O 0.31445992 -0.0736248 1.5882106
N -1.4097971 0.04011932 -0.028605154
C -0.25680298 0.13645619 -0.7809742
N 0.16140683 1.3641107 -0.29355347
H 1.1715974 1.4659677 -0.23852998
H -0.98987764 1.514927 1.6058495
H 1.5892937 -0.72459096 -1.4173094
H 0.19512859 -1.915737 -1.1747384
H -1.6388572 -0.90649104 0.25957322
H 0.7142839 -0.7384115 0.45778498
