12

O -0.57630378 -1.53473414 0.44352613
C -0.19322773 0.89097700 -1.36646329
C 0.05193800 0.79465617 0.10265765
C -0.48242753 -0.26270314 1.06289181
N 1.08660028 0.23562865 -0.78397886
H -0.81048279 0.02872025 -1.66501557
H 0.35144541 1.70420558 0.62443452
H 1.95874720 0.73162203 -0.91726650
H 0.19212148 -0.38394603 1.92085934
H -1.30756123 -1.50450231 -0.18102759
H -1.45510112 0.07135307 1.44636764
H 1.18425195 -0.77127747 -0.68698535
