9

O -1.77022457 0.29848193 0.86249520
C 0.98793554 -0.03427547 -1.08614739
N 1.52344316 -0.43326085 0.04473926
N 0.47072682 -0.32984054 0.89932947
C -0.60535448 0.11579592 0.23198734
N -0.32999677 0.31932595 -1.03233099
H 1.56565696 0.00829119 -1.99853672
H 0.55969956 -0.56871505 1.87382387
H -2.40188612 0.62419686 0.20464024
