10

N -0.49596509 0.06413487 -0.12425751
C -0.72106338 -1.04580025 -0.70052204
O -1.91384732 -1.34722512 -1.19776418
C 0.84072492 0.22414653 0.33516754
O 1.73179107 -0.59271815 0.21521014
N 0.98713111 1.43587079 0.93039841
H 1.86927818 1.65870673 1.35651061
H 0.00878542 -1.83952428 -0.84482271
H 0.18604467 2.03057169 1.05584142
H -2.49287953 -0.58816284 -1.02576170
