10

N -0.17019428 0.49268055 0.06261024
C 0.39413902 1.4181561 0.7933257
O -0.28210923 2.4848752 0.6715622
C 0.30165538 -0.8275748 -0.053937793
O 1.289919 -1.2365712 0.5217394
N -0.48354676 -1.5743383 -0.86882967
H -0.18860143 -2.5150816 -1.0669309
H -1.2421476 -1.1675135 -1.3862313
H -0.905361 1.6084431 -0.0806726
H 1.286247 1.3169245 1.4073645
