10

O 0.33598098 1.7218972 -1.3030194
C 0.4692041 -0.81570995 0.95443654
C -0.9059489 -0.26123774 -0.6329485
N 1.0029557 0.30352503 0.4418327
C 0.16387145 0.63629204 -0.53898644
N -0.70676166 -1.2401121 0.2748663
H 0.99846613 -1.5042561 1.604953
H -0.7235368 -0.7704637 1.4675838
H -1.7880915 -0.21891852 -1.2563552
H 1.1538604 2.1489837 -1.012363
