10

O -1.08406328 -1.85137523 0.32064068
C 0.15640355 1.34600661 -0.13588704
C -0.44384221 -0.69896501 0.12562824
N -0.96761232 0.46462742 0.10580365
C 1.01572520 -0.64989210 -0.09879442
N 1.38225961 0.56261827 -0.25656907
H 0.26913214 2.06096889 0.68669643
H 0.00760554 1.92054558 -1.05469810
H -2.02564606 -1.65431646 0.43671988
H 1.69003774 -1.50021773 -0.12954007
