10

C -0.1322034 -1.3376212 0.8025928
C -0.074773766 -0.14027101 0.026589205
C 0.8225463 0.9376902 0.13653253
C -0.15232515 -2.331949 1.471514
N -0.5250803 1.2917906 -1.3985164
N 0.51003486 1.8363953 -0.7870411
N -0.92814773 0.1175923 -0.96796453
H -0.18053007 -3.2220635 2.0596993
H -0.98340255 1.7616453 -2.163032
H 1.6438817 1.0867912 0.8196265
