10

C -0.76302920 0.46640895 2.61281293
C -0.48705418 0.25192759 1.46634716
C -0.11847541 0.00419541 0.10917890
C 1.15143226 0.09740296 -0.48908363
N 1.03330051 -0.22243519 -1.77051679
N -0.25357492 -0.48679588 -1.89710575
N -0.99940612 -0.37260237 -0.82133830
H -1.02161203 0.65386374 3.63117284
H 2.10085003 0.37204724 -0.05709203
H -0.64243141 -0.76401245 -2.78437596
