10

C -0.8904198 -0.78374594 -0.85436374
C -1.6974702 -1.4236048 -1.4727994
C 0.048162855 -0.007407367 -0.10830706
C -0.17129304 1.1188885 0.6826615
N 0.9740386 1.4899774 1.2543402
N 1.9255748 0.71266 0.77366877
N 1.3704983 -0.26002505 -0.09146697
H -1.0954784 1.6524321 0.8563226
H -2.4071717 -1.9936593 -2.0311296
H 1.9435587 -0.50551546 0.99107355
