10

C -0.93584365 0.37638912 2.367354
C -0.4758979 0.21170117 1.2679738
C 0.0664913 0.011442687 -0.033962306
C 1.3402185 0.120466195 -0.5486796
N 1.304955 -0.19965988 -1.8690273
N 0.09058534 -0.50037956 -2.203935
N -0.66369677 -0.37690148 -1.1108097
H -1.3327612 0.5269129 3.3480594
H 2.256989 0.40165636 -0.053625915
H -1.6510401 -0.5716275 -1.163348
