10

N -0.5026327 -1.2324249 1.1910886
C -0.93827915 -0.13354917 -1.0379232
C -0.28990448 -0.2150879 0.25885075
O -0.13418023 0.8059053 -1.6588488
C 0.9063609 1.1290485 -0.8450059
N 0.9104596 0.5755256 0.300203
H 0.12243833 -1.1583068 1.981055
H -1.2180637 0.54432887 0.2737924
H -0.47970176 -2.153472 0.77707785
H 1.6235032 1.8380324 -1.2402899
