10

N -0.6566146 -1.2192093 1.1905968
C -0.17900884 -0.30519646 0.2575827
C -0.7817339 0.73116744 -0.37801853
O 0.14029823 1.2655897 -1.2516946
C 1.2319258 0.5156963 -1.082454
N 1.1194762 -0.4268416 -0.20741442
H -1.319467 -0.8375269 1.8497062
H 0.10593699 -1.6824275 1.6670662
H -1.7555412 1.1926702 -0.3609436
H 2.0947282 0.76607776 -1.6844267
