10

N -0.6432336 0.9628164 1.2861724
C 0.80861145 -1.1595521 -0.84130704
C -0.17835385 0.5863247 -0.023046732
O -0.52556926 -1.1785089 -1.3348686
C -1.2154934 -0.16134615 -0.8465754
N 1.0766253 -0.20718819 -0.07365955
H -0.850449 0.13890065 1.8374153
H 0.018717868 1.5091419 -0.5959397
H 1.4322456 -1.9753705 -1.1806954
H 0.07689882 1.484782 1.7725046
