11

N 0.10178304 0.7114823 -1.7198968
C -0.005070951 0.16827661 -0.43603718
C 0.8895882 -0.50523025 0.3672671
C 0.12976508 -0.85963976 1.5068698
N -1.1174197 -0.44011727 1.4331099
N -1.1809175 0.18522686 0.23651358
H 1.0471358 0.6321649 -2.0733933
H -0.1918314 1.6783416 -1.7728103
H 1.9314176 -0.7022871 0.16652244
H 0.4625208 -1.4008029 2.3827379
H -2.066971 0.53258485 -0.09088256
