10

O 0.6710038 0.42007267 0.7626914
C -0.077003635 0.37656027 -0.28952524
C 1.5791502 1.1017412 -0.28430894
O -1.3016115 -1.3133196 0.99990046
C -1.1717267 -0.63789433 -0.21500218
O 2.5126839 0.5398639 -0.7576414
H -2.114807 -0.11983396 -0.44622856
H -0.47763997 -1.2010511 1.4948446
H -0.984688 -1.3338118 -1.0517311
H 1.3646387 2.1676729 -0.21299917
