10

O -0.44950283 -0.36104548 0.48487675
C -0.9199677 -1.4970887 1.1492279
C 0.78467727 0.82981855 -0.97049826
O 0.19925581 1.9811364 -0.41998273
C 0.41377994 -0.5436751 -0.5135877
O -0.2977216 -2.4927108 1.2861366
H -0.30130476 1.7120855 0.35803708
H 0.6167163 0.80803627 -2.0594249
H -1.9274479 -1.2847401 1.5319914
H 1.8815154 0.8481835 -0.8467763
