11

O -1.34216005 0.37709944 -1.05175399
N 1.04366186 0.04162886 1.18394314
C -1.10676247 -0.61280176 -0.01265155
C -0.03138972 0.76006356 -1.06375266
O 0.46066184 1.65793812 -1.66929422
C 0.39968998 -0.31626166 -0.05147698
H -1.59878416 -0.32245376 0.91924648
H -1.43063187 -1.60372381 -0.33187198
H 0.97349646 -1.10901017 -0.54067886
H 2.01945366 0.26452865 1.02331892
H 0.61276440 0.86299260 1.59497163
