11

O 1.4628092 0.8802457 -1.6831126
N 0.20004247 0.71306026 1.3943502
C 0.63803256 0.23688701 -1.1167142
C -0.95922446 -0.7542299 -0.33411816
O -0.4824391 -0.33898973 -1.6438134
C 0.32969216 -0.23096706 0.31682914
H -1.8604416 -0.2019057 -0.055609837
H 1.0053234 -1.0356466 0.6218469
H 1.1135718 1.023939 1.7049507
H -1.1358192 -1.8296342 -0.30187762
H -0.31154728 1.5372411 1.0972689
