11

O 1.1874878 -2.2519772 0.01465062
C -0.92303544 -1.0490748 -0.0758484
C 0.5428612 -1.2430356 0.093476914
C 1.1241453 0.9017565 -0.85427606
N 1.1102053 0.040736176 0.39314237
C -1.1862274 0.24864025 0.040313747
N 0.031365912 0.9711287 0.27232638
H -2.1086574 0.80717885 -0.022561079
H 0.04729135 1.6860995 0.9934951
H -1.6170675 -1.8498849 -0.29061958
H 1.7916307 1.7384325 -0.5641
