10

O -1.0786513 -1.0689338 0.60614073
C 0.88944083 -0.13532925 -0.53118676
C 0.28802195 -0.82916194 0.68569905
O 1.9510778 -0.3565568 -1.0130216
C -0.83749235 1.436253 -0.42243743
O 0.114229135 0.9065005 -1.1527668
H -1.2260579 2.232177 -1.090465
H 0.57741606 -0.21825185 1.5557345
H 0.8080387 -1.7883418 0.75541574
H -1.4860224 -0.17835532 0.6068877
