10

O 2.03169558 -0.90551176 0.11095630
C 0.95265689 -0.42863161 -0.01726350
C -0.33392854 0.98069771 -1.36725764
O 0.64720298 0.11204305 -1.31614493
C -0.11878287 -0.31643825 1.06132309
O -1.41909667 -0.52695513 0.61805961
H 0.13015035 -1.08821422 1.79460199
H 0.03064923 0.66718472 1.53469152
H -1.59934570 0.22410710 0.01598186
H -0.32120143 1.28171855 -2.43494838
