10

N -0.9740723 0.90310013 1.3123714
C 0.28940463 -0.31201568 -0.1294306
N -1.2989856 1.3913848 -0.9712103
N -0.115127124 0.003835218 1.1427315
N 1.2448119 -1.2824311 -0.460905
C -0.4475277 0.49259228 -0.9729236
H 2.1158671 -1.1243917 0.030734941
H -0.5837631 1.1684653 -2.0041401
H 0.920262 -2.2220068 -0.2649729
H -1.1508701 0.9814673 2.3177443
