10

N -0.57149273 -0.73674625 -0.98220104
C 0.2531129 -0.22763212 0.06022134
N -1.4967111 0.026192043 -1.336184
N 1.4617162 -0.8982526 0.36720824
N -0.49271306 1.7132365 1.5138822
C -0.09276009 0.84478563 0.7609083
H -2.008526 -0.48330775 -2.0649402
H 1.2872585 -1.7339027 0.9160231
H 1.937374 -1.1772401 -0.482394
H -0.2772585 2.6728675 1.2474761
