10

N -0.01462865 2.30234611 0.41082004
C 0.07756310 1.09224537 0.31973835
N -0.23071941 -0.18615627 -1.98452317
N -0.30750428 -0.90202062 -0.96224624
N 0.16259082 -0.99496358 1.43594067
C -0.01419348 -0.23002502 0.25767456
H 0.83717109 2.83237792 0.23252810
H 0.70969860 -1.82466317 1.24054363
H -0.48997076 -0.79696139 -2.76704216
H -0.73000717 -1.29217943 1.81656635
