9

O -0.9291721 -1.1291933 -1.9733393
C -0.4074953 -0.61986446 -1.0202374
N -0.8975509 0.3199498 -0.14084777
C 0.06290603 0.62584656 0.8200736
C 1.1288891 -0.12385225 0.52842635
O 0.8696 -0.8892751 -0.58456635
H -1.8215201 0.7055457 -0.22483517
H -0.10452886 1.339985 1.6100954
H 2.098872 -0.22914207 0.9852306
