10

O 2.0050838 1.1514944 0.4335764
C 0.96021473 0.60104823 0.20632972
C 0.43201593 -0.84789795 0.23164447
C -0.91362256 -0.24462074 -0.23711212
N -0.26565462 1.063192 -0.19542065
H 0.9242402 -1.5156145 -0.4783956
H 0.42493957 -1.3009793 1.2256397
H -1.2336463 -0.54865336 -1.2372059
H -1.7440982 -0.3513604 0.4671414
H -0.5894723 1.9933913 -0.4161974
