11

N 1.28774711 -0.39993085 -1.75784820
C 0.53319098 0.00020212 -0.67741769
N 0.57677672 1.22215074 -0.19356589
N -0.34522960 -0.85984008 -0.07051616
C -0.87271030 -0.08742786 0.84723951
N -0.36348105 1.14729351 0.80680414
O -1.80039624 -0.41444743 1.74803124
H 1.49321308 -1.38780738 -1.75437937
H 2.09794738 0.17908942 -1.92068584
H -0.57823601 1.94319884 1.38421405
H -2.02882213 -1.34248102 1.58812446
