11

N -1.7419353 -1.2287468 0.64538074
C 1.0964553 0.6189523 -0.29526192
N -1.5404267 0.27727178 -0.3769172
N 0.6277711 -0.4684836 0.41342387
C -0.6580723 -0.42268437 0.2209526
N 0.29652834 1.3905385 -0.93516403
O 2.4349651 0.7871896 -0.26456085
H 2.7939847 0.07164713 0.2772842
H -2.123213 -1.0923961 1.5681459
H -1.9475008 -2.0882103 0.16407584
H 0.7614434 2.1549218 -1.4173592
