11

C 1.1428627 -0.6559537 -1.5723119
N -0.13505119 -1.3127826 -1.4475952
C -0.7456266 -0.7164326 -0.40892556
C -0.0026799098 0.87790614 1.37706
N 1.2359316 0.2622606 -0.61222845
N 0.10401132 0.15344782 0.12282361
H -1.7253721 -0.9319175 -0.005091119
H 0.6404373 0.40614036 2.1231341
H 0.32579103 1.902552 1.20414
H -1.0399201 0.86312675 1.7121439
H 0.19961606 -0.8483469 -2.4931495
