11

C -1.13956406 0.21980033 0.33728636
N 0.07741683 -0.05131584 -0.15951139
C 0.46462337 -0.46661807 -1.49215313
C 0.28192447 0.47981807 1.83458373
N 1.00898755 0.11259072 0.79889127
N -1.05055721 0.56290666 1.60807239
H 0.73169648 0.69749047 2.79408789
H -2.04718486 0.15652689 -0.24749876
H 0.96285577 -1.43639059 -1.44083078
H -0.43380893 -0.54568410 -2.10803644
H 1.14361071 0.27087526 -1.92489135
