11

C -1.306482 -0.7881644 0.6818728
N -0.12758566 -0.051904358 0.26667547
C 0.39695442 0.099584244 -0.97133917
C 1.4873827 0.904071 -0.7700677
N 1.5694455 1.1956158 0.5549208
N 0.59282666 0.61703324 1.1742922
H -1.3690226 -0.7065916 1.7674271
H -2.201776 -0.35553584 0.2294704
H -1.2161539 -1.8391066 0.3974915
H -0.031091994 -0.36050618 -1.8491629
H 2.205503 1.2855045 -1.4815807
