11

N 0.68992513 -0.7641541 -1.1198434
C 0.314163 0.02591347 0.5731523
C -0.44817758 -0.44692883 -1.7039012
N 0.5390314 -1.2546186 0.26734272
C -1.1226214 -0.10219684 0.29807168
N 1.0442958 0.846879 1.3345017
N -1.5436795 -0.22579423 -0.9559805
H 1.9613302 0.52540624 1.61121
H -0.47510058 -0.34056455 -2.7838678
H 0.86274993 1.83781 1.350289
H -1.8219163 -0.10175174 1.1290256
