12

O -1.2062153 1.2211522 1.2631372
C 0.32712168 -0.27494702 0.45942792
C 0.33269757 -0.075381406 -1.1097023
O 0.3400023 -1.3539938 -1.6730835
C 0.035273086 1.0369132 1.060632
O -0.7212224 -1.0405751 0.8373993
H 0.72570944 1.8253518 1.3577743
H -0.56742966 0.48921075 -1.4003013
H 1.2236313 0.46238688 -1.4527059
H -1.5095375 0.1920048 1.0673306
H 1.3304138 -0.62683403 0.74053746
H -0.31044447 -1.8552883 -1.1504458
