12

O -1.00677906 -1.10683242 0.32677026
C 0.97601464 -0.78707208 -0.97029124
C 0.08026631 1.01478552 0.50700717
O 1.28529230 -1.92555243 -0.69362677
C -0.27362245 -0.16236362 -0.40781863
O -1.08474487 1.53851353 1.08652038
H -0.45139712 -1.90022182 0.37347569
H 0.79597212 0.65932550 1.26981824
H -1.57720633 0.77933400 1.42818566
H 0.55142053 1.82122262 -0.06360018
H 1.59983608 -0.14934665 -1.62430170
H -0.89505229 0.21820772 -1.23213890
