12

O -0.664871 -1.4503675 0.87819296
C -0.05796999 -0.22408022 1.1992733
C 0.4447204 0.45469955 -0.07264813
O 1.3248883 -0.42544666 -0.72152156
C -0.7107335 0.77597016 -0.9975357
O -0.726316 0.37943685 -2.137075
H -0.028074222 -1.9128166 0.31334046
H 0.7881922 -0.3477296 1.8889732
H -0.8120781 0.3986606 1.6938485
H 0.94036216 1.4057198 0.18766786
H 1.0255615 -0.45968592 -1.646591
H -1.5236819 1.4056394 -0.5859249
