9

N -0.26220602 1.2194524 1.5203736
C -0.36877796 1.1563834 0.16670546
O -0.74354535 2.0666785 -0.5407836
C 0.013860622 -0.14037572 -0.40970528
C 0.30353388 -1.1631731 -0.9746093
C 0.63379884 -2.3395867 -1.6311967
N 0.90780854 -3.321674 -2.175912
H 0.040224936 0.43675962 2.0767226
H -0.52469766 2.0855358 1.9684051
