9

N 1.2083714 0.34416926 0.85397476
C 0.52533627 0.88211834 -0.18654524
O 0.75846285 1.9352965 -0.7393924
C -2.075948 -1.8647025 -0.535432
C -0.59944767 0.059806734 -0.64375365
C -1.6346428 -0.30950955 -1.2829503
N -1.0997881 -1.4015356 0.02417065
H 1.969629 0.8846819 1.2341325
H 0.94802696 -0.53032523 1.2757957
