13

C -0.70796155 -0.61621534 0.72486103
C 1.77684650 -0.00373844 0.24698448
N 0.06248013 0.61811370 -1.26578467
O -1.73097003 0.26704566 1.10959443
C 0.33685484 0.03310293 -0.16698581
O -1.32083472 0.55434291 -1.53513452
H 1.90564114 0.52449378 1.19741352
H -2.11671465 0.60160613 0.28801474
H -0.22195491 -0.94935993 1.64872617
H 2.40642881 0.45960388 -0.51453690
H -1.39678248 1.06006579 -2.34933182
H -1.09644644 -1.51071513 0.21434584
H 2.10341371 -1.03834625 0.40183324
