13

C -0.73314 -0.20923227 0.9083403
C 1.7749875 0.040882863 0.25680068
N 0.08878297 -0.00328857 -1.4072263
O -1.2957255 -0.12882046 -1.6471306
C 0.33808088 -0.05579626 -0.15823811
O -1.7197174 0.7895935 0.84728086
H -2.0907483 0.7430504 -0.04484728
H 1.9242737 0.9278094 0.8813066
H -1.1572242 -1.2223637 0.8349002
H -0.26196942 -0.12012165 1.893618
H 2.0590305 -0.83165944 0.8559894
H -1.3502573 -0.029671632 -2.6019273
H 2.4236262 0.099617824 -0.6188664
