13

C 1.0247858 1.3933536 -0.1491985
C 0.23367733 0.15968955 0.13057992
N 0.024992112 -0.21131375 1.3283699
O -1.7357128 -0.85574156 -0.82359684
C -0.34884402 -0.70193326 -0.973183
O -0.75918525 -1.3356913 1.6351308
H -1.8504814 -1.2373053 0.0620208
H -0.26469114 -0.44416255 2.394446
H 1.8723503 1.1631175 -0.8059973
H -0.16741411 -0.22072221 -1.9383531
H 0.17577863 -1.671377 -0.9641391
H 1.4006814 1.8396386 0.77426696
H 0.39406312 2.122448 -0.6703463
