9

N -2.1076665 -0.44393373 -1.8481559
C 1.2143421 -0.16700062 1.4588331
O 1.6196803 0.77719265 0.58464485
C -1.1683117 0.09772507 -1.2515359
O 0.09089401 -0.5380998 1.6442685
C -0.24958539 0.7732404 -0.67834777
N 0.61311686 1.5025253 -0.13870542
H -2.1214912 -1.4590532 -1.7477051
H 2.1090214 -0.5425961 1.9767036
