9

N -0.6955979 -1.7304568 0.72009736
C -0.039899927 -0.7592409 0.26503274
O -0.46124548 -0.008999521 -0.81365347
C -0.30859825 1.353116 -0.7817688
O 0.06396547 1.9790092 0.162821
C 1.2859968 -0.46571884 0.7861399
N 2.3548758 -0.2900584 1.1880332
H -1.5870627 -1.825045 0.23321411
H -0.6124336 1.7473944 -1.7599161
