10

N 1.2007267 0.22461483 0.69701517
C -0.04424977 -0.43302104 -0.88384825
O -0.94545895 -0.09820939 0.8941037
C -1.2165278 0.14700247 -1.5015405
C 0.14011197 0.23272394 1.4376677
N -2.0993776 0.59889257 -2.0984702
H 2.101759 0.4886721 1.0825511
H 0.8398969 -0.16834994 -1.455961
H 0.14518377 0.49971867 2.5012062
H -0.12206434 -1.4920443 -0.67272365
