10

C 0.52607800 0.78558398 0.23295584
O 0.56732243 1.47622778 -0.97680175
C 0.00993078 -0.44613022 0.26124206
O -0.02917751 -1.23763655 1.36391065
N -0.49457535 -1.10150226 -0.85014164
H 1.05266251 1.21449548 1.08217831
H -0.06938565 2.20142435 -0.92852717
H -0.59373911 -0.47884554 -1.63651196
H -1.30527556 -1.66858424 -0.65841393
H 0.33615924 -0.74503274 2.11010949
