10

C 0.12063819 -0.48842052 0.119457304
O 0.09502031 1.8521674 -0.12526727
C -0.11157361 0.71425754 0.6523467
O 0.013726842 -1.6616216 0.79477865
N 0.56512994 -0.68967134 -1.1771297
H -0.30995858 0.85142946 1.7126591
H -0.2917594 -1.4742965 1.6917344
H 0.51748997 0.15649274 -1.7227027
H -0.7677166 2.2406974 -0.3211426
H 0.16900289 -1.5010346 -1.6247337
