17

C -1.531153 2.2391155 0.13680826
N -0.66244555 1.177417 -0.34106028
C -0.1126302 0.3178324 0.59351176
O -0.23120102 0.52276695 1.7955855
N 0.6031678 -0.73970586 0.081879616
C 1.0447768 -1.7864032 0.98016816
C 0.8350588 -0.937681 -1.3365473
H -2.4658782 1.8622411 0.5724637
H -1.0092643 2.8041627 0.9127603
H -1.7630092 2.909 -0.6941106
H -0.9345632 0.77232504 -1.2235459
H 0.5270925 -2.7361913 0.7800981
H 0.825951 -1.4725534 2.0000162
H 2.1243446 -1.9560589 0.8789472
H 0.99680436 0.02263618 -1.8340532
H 1.7443143 -1.5338339 -1.4677578
H 0.008634485 -1.4650701 -1.8351635
