17

C -0.59552884 -0.32925275 -0.41288674
N -0.3166067 0.7339354 0.40578657
C 0.57423896 -2.678138 -1.3018291
O -1.7113614 -0.78600115 -0.5774203
N 0.50711906 -0.89573014 -1.0989165
C -1.4218818 1.457984 1.000005
C 1.0242535 1.2223463 0.6821107
H 1.3855023 1.91236 -0.09326509
H 1.7332667 0.3949722 0.7878597
H -1.435033 2.5005655 0.6541373
H -1.3354034 1.4505657 2.0923526
H 0.3834385 -1.4412451 -2.0534897
H -2.347687 0.9638787 0.7071765
H -0.32219687 -2.9198208 -0.7254463
H 1.41539 -0.4579606 -1.0203518
H 1.0071841 1.7548269 1.6360761
H 1.4553057 -2.8832858 -0.68189883
