17

C 0.60381854 -2.1389081 0.49967977
N -0.5354015 1.2843447 -0.09373085
C -1.2428675 2.3285425 0.62982416
O -1.2148035 -0.278565 1.4160302
N 0.3156641 -0.8875515 -0.1678396
C 1.0123204 -0.6188666 -1.4101647
C -0.5110999 0.01621131 0.4584302
H -1.3414527 3.204416 -0.015929397
H -2.2408311 1.9650973 0.88494307
H 0.37587082 -2.9899063 -0.15381345
H 1.9918237 -0.14283752 -1.2560654
H 0.31311828 1.5839903 -0.55162257
H 1.1748074 -1.5672057 -1.9328588
H 1.6622623 -2.2010531 0.7917205
H 0.40002966 0.014923163 -2.0562227
H -0.016503965 -2.1967664 1.3934225
H -0.74675524 2.624135 1.5641974
