10

C 0.32401592 -0.453577 1.1792954
C 0.98760974 -0.16747826 -0.83043456
N -0.68334943 1.3616271 -0.34416088
C -0.7192483 0.340029 0.69270426
C -0.48863122 0.19143753 -0.9622644
N 1.392653 -0.5370189 0.33599195
H -1.6673228 0.36429822 1.2332554
H -1.11225 -0.18847963 -1.7815924
H 0.28699788 -1.0330291 2.095031
H 1.6795251 0.12219116 -1.617826
