14

C 2.120941 -0.16697422 -1.1958691
N 1.1201097 -0.5432038 -0.21423475
C -0.034221485 0.20644583 -0.11856794
O -0.18924116 1.2716887 -0.68830377
N -0.9984923 -0.37006226 0.6884342
C -2.1540725 0.42574084 1.0628885
H 1.8408937 -0.44735584 -2.219372
H 3.0686386 -0.64550585 -0.9404304
H 2.250068 0.9154355 -1.1628101
H 1.0192862 -1.5365195 -0.056589417
H -0.6555173 -0.9962351 1.404266
H -2.9282784 -0.23163304 1.464524
H -1.9192367 1.1982678 1.8057556
H -2.5408776 0.919911 0.17030944
