11

C -0.022941373 -1.1549363 0.51640826
N -0.6933219 -0.09768138 -0.30174685
C -0.2413878 1.3256478 -0.13298927
C 1.0758259 1.4270595 -0.6198086
N 2.1442032 1.4786416 -1.0923977
H -0.39886832 1.6275012 0.8978971
H -0.58985144 -0.32360452 -1.2914503
H -0.19150767 -0.9096392 1.5662699
H -1.6974899 -0.11865293 -0.12477541
H -0.4303793 -2.143323 0.28385642
H 1.0457183 -1.111013 0.29873642
