11

N -0.16721721 -0.4472116 1.2794563
C 0.69753516 0.14524655 0.48435977
N -1.2619759 -0.54925203 0.4539503
N 1.9591459 0.51251805 0.8980233
C -0.9666741 -0.033399694 -0.7418535
N 0.26131457 0.42376947 -0.7838643
O -1.8692578 -0.024100384 -1.7246541
H -1.4438071 0.39858612 -2.484399
H 2.6288373 0.5430193 0.14393789
H -2.1194763 -0.9706217 0.76979345
H 2.2815754 0.0014459682 1.7052504
