11

N 0.34377313 -0.38463596 1.3073659
C -0.67707753 -0.5257687 0.53045154
N -1.8571889 -1.17696 0.75641835
N 1.3072602 0.16944848 0.47068962
C 0.75146747 0.47792056 -0.67717755
N 1.509314 1.3186507 -1.3393426
O -0.50371414 -0.007159916 -0.7555586
H -1.944617 -1.4628555 1.7210127
H -2.6727016 -0.68932265 0.41087922
H 1.5815821 1.2667357 -2.3493407
H 2.1619022 1.0139471 -0.075397715
