11

N -1.4158154 1.1375084 -1.2383698
C 0.77144474 -0.935949 0.47711912
N 0.11009213 1.2549047 0.57423264
N 1.4290311 -1.993134 0.6677322
C -0.5256051 0.62600034 -0.33886397
N 0.87067765 0.24770796 1.166294
O -0.22793514 -0.6975809 -0.46016732
H 1.156966 -2.7212265 0.014104012
H 1.7221481 0.5014394 1.6369737
H -2.1653945 0.5133275 -1.5007416
H -1.7256092 2.0670023 -0.99831283
