11

C 0.63660955 -0.45177227 1.1421814
C -0.58927447 -0.95583296 -0.8892985
N 1.1607294 0.7262191 0.934698
C -0.62370384 -0.4903076 0.43733838
C 0.2301437 1.3731346 0.13198023
O -1.0199 0.832529 0.35951483
H 1.1650194 -1.2703317 1.6164348
H -0.07689499 -1.8840636 -1.1275226
H -1.4115217 -0.6848608 -1.5482018
H 0.2762757 2.45103 0.0045113005
H 0.25251716 0.3542563 -1.0616361
