14

C 1.7558882 -0.91516644 -1.3598748
N 0.05352363 -1.5065161 -0.31803226
C -1.2505319 1.6160239 1.0817612
O 0.7640346 0.53750074 -0.44681355
N -1.0357038 0.1920168 0.927585
C -0.08761677 -0.26631328 0.04716691
H 1.5276898 -1.8134438 -1.9244064
H -1.8252019 2.0491297 0.25362146
H -1.7783933 1.8034264 2.0204604
H -0.27795234 2.110709 1.1218839
H 2.488388 -1.0719709 -0.5777385
H 1.9828998 -0.07599726 -2.010131
H -1.828815 -0.41237682 1.0664433
H -0.48820904 -2.2470217 0.11807445
