14

C 0.55835600 -0.31272397 -0.08927304
N 1.74805999 -0.45915318 -0.52525660
C 0.24174804 1.28224194 -1.77023796
O -0.27592831 0.58404190 -0.64271299
N -0.06667070 -1.00423726 0.92751784
C -1.27854320 -0.52590115 1.56803243
H 0.49439974 0.58563202 -2.57547116
H 2.23706622 -1.19330348 -0.02452302
H 1.13806561 1.84817547 -1.50264890
H 0.57115330 -1.50997021 1.51958072
H -1.64851809 -1.31415314 2.22922490
H -2.03952537 -0.32136179 0.81337981
H -1.12096121 0.38758682 2.15488194
H -0.55870265 1.95312614 -2.08249399
