10

C -0.4255123 0.31405154 -1.1883453
C 0.7124671 0.7668779 -0.48011175
N -1.0479147 -0.57216185 -0.36836895
N -0.685536 -1.7662799 0.10569103
C -0.4908078 -0.5807725 0.95742697
C 0.76742446 0.14930046 0.75807947
H -0.6969994 0.41232416 -2.2272637
H 1.462393 1.4327111 -0.8939305
H 1.53594 0.29207933 1.5091488
H -1.1314543 -0.44813022 1.8276737
