10

C -0.22257987 0.97481084 -0.3690187
C -0.62795657 -0.039406434 -1.2369106
N -0.45638892 -1.3350577 -0.9889523
N 0.1311234 -1.7105088 0.13716733
C 0.5401562 -0.78968644 1.0045216
C 0.38904002 0.5825173 0.8042063
H -0.38682416 2.0185125 -0.6154537
H -1.116809 0.1845878 -2.1814928
H 1.0116562 -1.1815624 1.9037358
H 0.73858285 1.2957933 1.5421971
