10

C -0.25918883 1.07005001 -0.33768690
C -0.76577574 -0.04207821 -1.05055724
N -0.28432591 -1.14298575 -0.41705208
N 0.95205664 -1.62089476 -0.25915880
C 0.35986620 -0.82396902 0.82850881
C 0.52372714 0.63086402 0.71668398
H -0.40372212 2.10273524 -0.63708634
H -1.23993958 -0.10607472 -2.01688393
H 0.06580058 -1.32690566 1.74825412
H 1.05150177 1.25925880 1.42497841
