11

C -1.1445496 -0.31284314 0.7067563
N -0.059249304 0.6570134 0.6380729
C 1.1035712 0.18346754 -0.08365914
C 0.83304566 -0.17202868 -1.499134
N 0.554065 -0.4185578 -2.5923803
H -1.512458 -0.6406573 -0.27711007
H -1.9753067 0.12887035 1.2643781
H -0.80230016 -1.1962708 1.2575793
H -0.38716274 1.5218129 0.22439897
H 1.8842219 0.95129067 -0.06094361
H 1.5061226 -0.70209724 0.4220416
