11

C -1.1450208 -0.3133247 0.70555454
N -0.06017106 0.65828747 0.63672847
C 1.1041704 0.18425426 -0.08115675
C 0.8344065 -0.16936508 -1.497825
N 0.5585627 -0.41996774 -2.5907543
H -1.5151901 -0.64022917 -0.27809644
H -1.974334 0.12877986 1.2649949
H -0.80097425 -1.196088 1.2568141
H -0.39003465 1.5200267 0.21692337
H 1.8840233 0.9507509 -0.057064753
H 1.5045619 -0.7031245 0.42388183
