11

O -1.3057753 -1.5510587 0.6286546
C -0.27370566 1.3671843 1.1330204
N 0.17808574 -0.25310668 -1.006523
C 0.30115658 0.3770064 0.46122384
C -1.1635255 -0.45446536 0.1838577
C 1.2810915 -0.5261164 -0.045275856
H 2.2530417 -0.11095721 -0.29945076
H 0.3424016 0.5191767 -1.6491815
H -0.9857391 1.9957991 0.5876977
H 1.2861017 -1.5700989 0.2691339
H -1.9131335 0.20663655 -0.26315695
