11

N -0.15555333 0.39490098 1.5092299
C -0.36295635 -0.7023942 0.7291573
O -0.573859 -1.8224238 1.1516535
C -0.23399471 -0.46112302 -0.7601827
C 1.0753917 -0.040065628 -1.3289659
O -0.38245088 0.93961173 -1.0899355
H -0.18984854 1.3189611 1.1105039
H -0.26195315 0.283585 2.5067081
H 0.22821942 0.9281023 -1.9862971
H 1.735473 0.28676152 -0.5111112
H -0.87846816 -1.1259161 -1.3307605
