11

N 0.70762515 1.4036753 0.22134903
C 0.7670365 0.13593152 0.7081497
O 1.646315 -0.28271228 1.4372423
C -0.3156843 -0.80508196 0.22866444
C -0.31371513 -1.3541467 -1.1537815
O -1.4095249 -0.088454634 -0.43625584
H -0.6449078 -1.4468143 1.0466765
H 0.33584663 -0.65526164 -1.7223876
H 1.4674304 2.029179 0.44280455
H -2.2009325 -0.6418789 -0.39252537
H -0.03948904 1.7055645 -0.379936
