10

C 0.25886357 -0.6256723 -1.4353639
N 0.113843724 -0.06897238 -0.105023995
N -1.0257621 0.41055873 0.3594768
C -0.663947 0.78520423 1.5759813
N 0.63738066 0.5432483 1.8289307
N 1.1159369 -0.0008137979 0.747366
H -0.38307023 -1.5023835 -1.5369939
H 1.3053017 -0.9046771 -1.5503436
H -0.01940655 0.12664686 -2.1742835
H -1.3391409 1.2368609 2.290254
