10

C 0.05625379 0.94577747 -0.85569191
N 0.12564728 0.01783012 0.11036735
N 0.93880473 1.88277571 -0.59844760
C -0.64419223 -1.19194016 0.33353025
N 1.54602057 1.51090486 0.54734916
N 1.07134540 0.40167560 0.98393191
H -0.86822538 -1.66445261 -0.62405741
H -0.03832123 -1.85940854 0.94520379
H -0.61511120 0.91288249 -1.70028855
H -1.57222196 -0.95604500 0.85810291
