11

O 1.8093573 1.1417834 -0.06673435
C -1.4154489 0.34086677 -0.040734004
C 0.44440338 -0.92560077 -0.036936603
C 0.7165074 0.4716681 0.4834971
C -0.8587766 -1.0045596 -0.3070579
N -0.55078906 1.1988564 0.35328963
H 1.2017323 -1.6953908 -0.113225944
H -2.460314 0.607723 -0.17935109
H 1.6119472 1.3176181 -0.99607086
H 0.9282081 0.40552062 1.559575
H -1.4268274 -1.8584852 -0.6562509
