11

O 0.19001465 -1.9086502 1.128674
C 0.028409852 -0.76568645 0.41278243
C -0.874774 -0.36788553 -0.53817886
C -0.5010889 0.96521443 -0.90856445
C 0.5961718 1.3157594 -0.17650557
N 0.9157379 0.24136876 0.6353819
H -0.50751346 -2.5210476 0.8695411
H -1.7003682 -0.9497328 -0.9245254
H -1.0039477 1.5823263 -1.639786
H 1.1815678 2.2214658 -0.15236202
H 1.6757905 0.1868679 1.293543
