11

N 0.99691298 1.21705726 -1.10840550
C 0.20650841 0.40691817 -0.32833775
C -0.18614922 -1.13386266 1.35705649
N 0.10170990 0.26348911 1.15200578
C -0.89689930 -0.56077845 -0.51316944
N -1.03846980 0.71225597 0.25807113
N -0.79552803 -1.67829507 0.38954211
H 1.92836254 0.85069719 -1.26352521
H -1.46249869 -0.64892965 -1.43498266
H 0.12500848 -1.60584438 2.28332404
H 1.02104247 2.17729234 -0.79157879
