9

O 2.5039186 -0.3046242 -0.04818978
C 1.4278792 0.22181365 -0.13122115
C 0.21025304 -0.23428863 0.6646373
C -1.0256261 -0.0943801 -0.10782174
C -2.0110993 0.03558779 -0.7796997
H 1.2554498 1.1002734 -0.78682226
H 0.157547 0.39375976 1.5639944
H 0.3751336 -1.2642366 0.99615294
H -2.893456 0.14609492 -1.3710301
