9

O 2.84584838 1.10779838 0.68445795
C 1.94377899 0.43007839 1.12235523
C 0.71395482 0.16127125 0.40496666
C -0.31366916 -0.07327707 -0.17396215
C -1.55483613 -0.34622706 -0.89454176
H -1.33649500 -0.77183803 -1.87935940
H 2.00559901 -0.03717826 2.12361974
H -2.18648117 -1.05087380 -0.34472524
H -2.11769989 0.58024619 -1.04281112
