11

O -0.42086485 2.177197 -1.3817358
C 0.94926924 0.33256376 -0.38323003
C 0.279967 -1.6016948 0.10596133
N 0.2779621 -0.31735864 0.6254853
C -0.14989671 1.2881867 -0.6202953
C -0.8759479 0.63750917 0.5941836
H -1.8503517 0.18043911 0.40133765
H 1.9985757 0.23563655 -0.62386364
H -0.896725 1.2602546 1.4912928
H 0.5796841 -2.4278705 0.7432194
H 0.1083281 -1.7648625 -0.9523554
