9

N -0.17269298 -0.0022100273 -0.42068627
C -1.4233354 -0.027862815 0.061566666
N 2.1081781 0.05106218 -0.1684972
C 0.96776205 0.019518673 0.38058376
O -2.4055023 -0.048414636 -0.79789084
H -2.6046135 -0.06753092 0.39150771
H -0.039441112 0.006788604 -1.4314666
H 2.8369832 0.062409483 0.5373442
H 0.73266196 0.0062394533 1.4475385
