11

O 0.8821904 -2.0374498 -0.9431071
C -0.72566706 0.74167204 0.6347445
N 1.0265583 0.24938156 -0.7042317
C 0.4715759 -0.9939996 -0.48860177
C -0.7362951 -0.74716693 0.42051357
C 0.30717126 1.2559506 -0.03456664
H 1.8442123 0.39137232 -1.2761632
H 0.63299525 2.2845016 -0.11500845
H -0.62242085 -1.3236237 1.3454623
H -1.643361 -1.1141795 -0.07083907
H -1.4369594 1.2935413 1.2317979
