11

N -0.07664909 1.2580397 1.3274375
C 0.7656261 2.029694 1.6193479
C -1.0501152 -0.6414494 0.22165038
N 1.947483 -0.48940605 -1.6368139
C -1.1157739 0.39978123 1.0472395
C 0.84875834 -0.17046499 -1.130831
O 0.02666872 -1.0738099 -0.48939416
H -2.041589 0.6036472 1.5747926
H 0.4292427 0.8339031 -1.2020296
H -1.9120911 -1.2876196 0.10296759
H 2.1784399 -1.4623152 -1.4343671
