11

C -1.3051655 0.104842246 -0.78282857
O 0.0696444 -0.013615153 -1.085273
C 0.81948334 -0.531433 -0.017665371
C 1.0182763 0.49159864 1.0868837
O 1.2827649 0.20445114 2.2261875
H -1.7469821 -0.87283206 -0.5421185
H -1.4834625 0.78816885 0.06103953
H -1.7908584 0.50861067 -1.6720381
H 1.8090411 -0.77593505 -0.42164487
H 0.38478622 -1.4517728 0.4021056
H 0.9424721 1.5479164 0.74535227
