11

N 0.77010578 -1.59691464 -2.03040733
C 0.36611628 0.75335488 0.65345085
O -1.06831645 -0.29568052 -1.07747863
C -0.09978596 -0.98924835 -1.56220573
C -0.96442419 0.09048747 0.32423242
O 1.41301779 -0.16649371 0.82294934
H 0.24638913 1.26588637 1.61428007
H -1.09912726 -0.80726646 0.93255815
H 1.65236636 -0.54976789 -0.03294354
H 0.58440305 1.52141556 -0.10588213
H -1.80074481 0.77422722 0.46144632
