11

N 2.257678 -0.6437795 0.7270032
C 1.1066176 -0.31699464 0.34071988
O 0.511486 -0.90053666 -0.7227071
C -0.8562565 -0.49797913 -0.75621235
C -0.83649445 0.8039122 0.035779912
O 0.28831968 0.6215017 0.8944822
H 2.5462875 -0.061868858 1.5061505
H -1.4714856 -1.2668883 -0.2762156
H -1.158653 -0.3766977 -1.7978022
H -0.6628991 1.6770703 -0.60177684
H -1.7246004 0.96226054 0.6505782
