11

N -0.043387078 -2.1402862 -1.6380005
C -0.6423844 -1.2423191 -1.2136893
O -1.3135916 -0.23440139 -0.7805256
C -0.82994074 0.4043707 0.43716288
C 0.6499186 0.75555474 0.36786628
O 1.4890658 -0.34476125 0.60448974
H -1.0174909 -0.27514845 1.2721754
H 0.8520617 1.4761448 1.1679313
H 0.856997 1.2588048 -0.59026253
H -1.4522697 1.293989 0.52110225
H 1.4510211 -0.9519477 -0.1482497
