11

O 1.6821103 0.6611192 -0.5151011
C 0.76039684 -0.049749542 0.25112116
C -0.3365713 0.6914317 1.0417867
O -1.3523809 -0.14542283 0.41488773
C -0.42376935 -0.68679017 -0.4394699
N -0.5564501 -1.3747011 -1.4794748
H 1.2595913 0.9061926 -1.3478638
H 1.3162276 -0.7577234 0.8725898
H -0.3483532 0.57795024 2.1274095
H -0.46226108 1.7380848 0.75069207
H -1.5385402 -1.5603915 -1.6765777
