11

O 0.71268823 0.00447068 0.94844992
C 0.60421776 -0.62632870 -0.25393604
C -0.37387347 0.92327263 1.05216572
O -1.36630741 0.47837245 0.17814510
C -0.68292654 -0.15091009 -0.88875009
N 1.41015360 -1.44921491 -0.75720824
H -0.46624096 0.55353441 -1.70414087
H 2.21724415 -1.58929764 -0.15493919
H -0.76050392 0.90926873 2.07106958
H -0.01248590 1.92566447 0.77935564
H -1.28196562 -0.97883203 -1.27021186
