11

O -1.0653099 -0.24228667 -0.96632487
C -1.169069 0.84956455 -0.10384688
C 0.26868993 -0.6981041 -0.84823084
O -0.27478248 0.6076677 0.9811913
C 0.6633496 -0.2809716 0.55033857
N 1.6719482 -0.6883079 1.18023
H -0.87456876 1.7868121 -0.59847033
H 0.9280064 -0.22075026 -1.5868051
H 0.29886276 -1.7808636 -0.9768275
H -2.188399 0.91026735 0.27710694
H 1.7412724 -0.24302766 2.0916388
