11

O 1.80473454 0.17111166 0.02723090
C 0.60228434 0.07909234 0.07886424
C -1.38136973 0.26708290 1.42661318
N -0.06535737 0.36203372 1.31513615
C -0.23672870 -0.32453999 -1.09990434
O 0.56586257 -0.54335515 -2.21902993
H 1.48473014 -0.40973029 -1.94464087
H 0.59334052 0.62361374 2.04700497
H -1.58216699 0.53552437 2.48712509
H -0.97810201 0.46533727 -1.29051133
H -0.80722725 -1.22617039 -0.82788806
