12

N 0.8626898 -0.7911765 -0.70300376
C 0.4843294 0.6360315 -0.589837
N 1.4751303 1.4486473 0.055727288
C -1.1211826 -0.48141304 0.31384227
O -2.2257402 -0.91309744 0.9208662
C -0.104591995 -1.4371908 -0.18769552
N -0.7884812 0.72851884 0.104516335
H -0.16011539 -2.5187082 -0.11777999
H -2.7314687 -0.13409457 1.198076
H 0.36051488 0.99679506 -1.6193055
H 1.5755473 1.1583185 1.0235499
H 2.3733685 1.3073695 -0.39895624
