10

C -1.0831684 0.24421342 -0.25220624
C -0.31649745 -0.59800464 -1.0498662
N 0.95277774 -0.8911413 -0.7643685
C 1.4436184 -0.32381824 0.33654544
N 0.8108862 0.49521402 1.1745079
C -0.4564159 0.77198374 0.86799943
H -2.114508 0.47509003 -0.49131685
H -0.7301198 -1.0553651 -1.946203
H 2.4784455 -0.55750734 0.57908916
H -0.9850183 1.4393351 1.545819
