10

C -1.21322488 0.37875389 -0.12632545
C 0.99751773 0.11762123 0.72940013
N 0.35754757 -0.92229895 -1.14344526
C -0.91948677 -0.49691517 -1.23692322
N 1.33578738 -0.68446247 -0.24453673
C -0.29313324 0.68492009 0.83347753
H -2.21327720 0.80220982 -0.07312868
H 0.69387117 -1.54846362 -1.86743293
H 1.77342451 0.32410960 1.46208036
H -0.51902629 1.34452527 1.66683437
