10

N 0.91583335 -0.54678657 1.27879493
C -0.91191746 1.41609186 0.56888593
C 0.27167146 -0.67130338 0.19618379
N -0.89265064 0.08453080 -0.08379872
C -0.70838577 1.42849718 -0.69211736
C 0.56355866 -1.65911140 -0.83669547
N 0.84074790 -2.43149873 -1.64633356
H -0.61682827 1.82634580 -1.68994235
H -1.11238415 1.80379699 1.55187851
H 1.65035497 -1.25056272 1.35314452
