10

N 0.60176116 1.413593 0.39804265
C 0.8964094 0.63218355 -0.6414623
O 1.1216788 -0.59748906 -0.48671222
C -0.60229385 -1.4385178 0.24342436
C -1.0944935 -0.30769932 0.8004719
N -1.0084894 0.86577094 1.0607607
H 0.83694416 1.0343267 -1.669268
H 0.35386446 2.352594 0.10538355
H -1.0233335 -1.8081963 -0.68688667
H -0.08204765 -2.1465657 0.8762461
