10

N 0.20826734 -0.84187967 -1.16086572
C -1.16009565 -0.84978292 -1.05414899
O -1.78955423 -0.25152502 -0.21316505
C 0.74577120 0.51136741 0.61819841
C 0.65079234 1.26892213 1.67462358
N 1.08313511 -0.16780836 -0.35852172
H -1.60771202 -1.48005622 -1.83956139
H 0.67429315 0.82581440 2.66296703
H 0.52534359 2.33975245 1.56584848
H 0.66975933 -1.35480409 -1.89537436
