11

C -0.52136093 1.1362475 0.47813505
C -0.12696135 -0.23163255 -0.03090356
C 1.2606308 -0.713711 0.029619986
O 0.2818816 -1.1817639 0.9401177
C -0.98899496 -0.7744075 -1.0802665
N -1.6789218 -1.1690325 -1.9180089
H -1.5269542 1.1103508 0.90713066
H 0.18195496 1.4548967 1.2523435
H -0.5107765 1.8664773 -0.33587408
H 1.6141858 -1.447224 -0.6920103
H 2.0153165 -0.050200965 0.44971636
