11

C -0.58209165 1.03214204 0.78230910
C 0.72948242 -0.77432841 -0.55537816
C -0.38313378 -0.78508635 -1.50653903
O 0.96603117 -0.49328194 1.78479802
C 0.40218769 -0.10888270 0.79188680
N -1.27478763 -0.78179779 -2.23899865
H 1.56692686 -0.22332778 -1.00114542
H -0.32108577 1.76032511 0.00749460
H -0.59682571 1.51373407 1.76114012
H 1.07458141 -1.79450176 -0.36650625
H -1.58128508 0.65500540 0.54093878
