17

C -0.26316923 -0.5089359 0.55725694
N 0.107344344 -0.45164376 -0.7585291
C -0.23556492 -1.570814 -1.6184771
O -0.9740155 -1.3736005 1.0346196
N 0.24428743 0.5274735 1.3709126
C 0.89672583 0.6208274 -1.3444499
C -0.79511786 1.1964276 2.6440887
H -0.9013666 2.2186365 2.2709982
H 0.38190737 0.3986726 2.476155
H 1.9760491 0.48740348 -1.1850123
H 0.59601325 1.5969884 -0.9504488
H 0.70598847 0.635333 -2.4206953
H -0.81558365 -1.2246603 -2.48058
H 0.9304034 1.1651617 0.99998116
H 0.6730653 -2.0702853 -1.9769081
H -1.697327 0.6270393 2.4169204
H -0.82964003 -2.2740233 -1.035831
