17

C -1.20895312 1.03849901 -0.92412679
N 0.07374200 0.15052930 1.38178273
C 0.60712491 -0.26582185 0.17796273
O 1.65108729 -0.90271934 0.12680036
N -0.09084194 0.11668400 -0.94484570
C 0.67992918 -0.34276342 2.60383842
C 0.22337508 -0.51933924 -2.20614031
H 0.50268885 -1.41438462 2.76692071
H -0.92555286 0.27624104 1.40727924
H -2.17144434 0.53839179 -0.74416468
H -0.60857759 -1.14656403 -2.55713044
H 1.76010543 -0.18944227 2.54857879
H 0.28414755 0.22221750 3.44965121
H -1.05217540 1.80301801 -0.15641179
H -1.26779158 1.54442761 -1.89314176
H 0.43762251 0.23306029 -2.97494234
H 1.10551461 -1.14203345 -2.06191051
