13

C 0.5830548 -1.5858828 -1.1659031
N 0.23122908 -0.6414608 -0.1272145
C -0.05013945 0.6624895 -0.37947237
O -0.073365085 1.1711411 -1.4848114
C -0.33569002 1.4771773 0.87810534
O -0.5625993 0.69357765 2.0379066
H -0.113906324 -2.4289312 -1.1815774
H 0.5330386 -1.0602925 -2.1208653
H 1.6000367 -1.9655198 -1.022718
H 0.27081323 -0.9107168 0.84531176
H -1.1713456 2.1526048 0.65479416
H 0.54578894 2.0943735 1.0823208
H -1.4569155 0.34143984 1.9841229
