13

C -0.63610187 -0.36425335 1.41689521
N -0.90353768 -0.06846485 -1.03496013
C -0.17547156 -0.09587981 -0.00033314
O 1.14639093 0.11327204 -0.04232608
C 1.69713978 0.31489343 -1.34487941
O -2.03576790 -0.28331418 1.53844105
H -1.86469985 -0.27075590 -0.76965342
H 1.52070055 -0.55787967 -1.97966909
H 2.76451819 0.46003450 -1.18101643
H -0.36266857 -1.39030507 1.68495615
H -2.29667462 0.63873310 1.42561789
H 1.25370329 1.19466764 -1.81782598
H -0.10753062 0.30925190 2.10475287
