13

C -0.45845568 -1.3563446 1.7189454
N -0.9018805 0.16306978 0.35757783
C 0.22439481 -0.079384685 -0.23448701
O -0.035471424 1.8247312 -1.7535753
C 0.7211603 0.6728 -1.4534787
O 0.92708004 -1.0018405 0.27025503
H 0.16580023 2.4950335 -1.088504
H -0.026059588 -0.70913166 2.4723878
H 0.029197067 -2.3210824 1.6298785
H 0.6293116 0.003343104 -2.3146281
H 1.7902442 0.8873441 -1.3209147
H -1.5271364 0.8532988 -0.053259827
H -1.5381846 -1.4318368 1.7698028
