10

N -1.2291456 -0.7072143 -0.2956928
C -0.6288169 -0.0060686762 0.69595945
O -1.1199094 0.2027267 1.785264
C 0.7648518 0.5576241 0.38101614
C 1.3050121 0.19365789 -0.9280392
N 1.6853446 -0.121847324 -1.972533
H -2.1421456 -1.0983196 -0.11712506
H -0.7864305 -0.8822475 -1.1831253
H 0.7078159 1.6464175 0.4662488
H 1.4434235 0.21527143 1.1680268
