10

N -0.57871042 -1.49822564 0.71911445
C 0.09198473 -0.45501839 0.19542631
O 1.84506496 1.85906395 -0.91770436
C -0.40311761 0.88816044 -0.25866531
C 1.13083981 1.00287022 -0.49069830
N 1.37464781 -0.31723049 -0.00336952
H -1.56395452 -1.59028172 0.53105706
H -1.02475083 0.92228038 -1.15802973
H -0.81460011 1.53771488 0.52072376
H -0.05740392 -2.34933341 0.86214548
