10

O 0.13486329 0.8957545 2.6434193
C -0.3551821 0.5610349 1.6449853
C -0.1768356 0.02075088 -0.7579689
C -0.94630307 0.17355749 0.5334793
N 1.2143215 -0.3222149 -0.48541272
H 1.7559464 -0.30402255 -1.3457519
H -2.0164218 -0.004505388 0.5826441
H -0.71069735 -0.7185801 -1.3785521
H -0.17480385 0.96069163 -1.3244376
H 1.2751127 -1.2624664 -0.11240499
