11

C 0.46001622 -1.2041192 1.2464147
C 0.2907586 0.6480271 -0.67493016
C -0.32238016 -0.18475738 0.1812243
N -1.834241 1.4147255 -1.4443346
N -0.6226218 1.4368304 -1.4810482
N -1.2350898 -0.75768197 0.7982891
H 1.358093 0.7641708 -0.7844075
H -0.08773148 2.051519 -2.1275544
H 1.0290906 -0.4886501 1.8380618
H -0.07600553 -1.8837429 1.9090846
H 1.0401112 -1.7963215 0.53919995
