12

C -0.6188466 0.6418573 -0.6530482
C -1.6566645 0.9678378 1.3969486
O -0.615629 0.3416207 0.642101
N 0.41183826 -0.02704108 -1.237305
C 1.3547373 -0.8992105 -0.6894
N 2.2372155 -1.4067469 -1.4504026
H 2.8442874 -2.0235367 -0.91791666
H -2.2406461 0.18322086 1.8846616
H 0.5201031 0.12323104 -2.2332704
H 1.2411164 -1.0678883 0.3832811
H -1.1944654 1.6090825 2.1518762
H -2.283046 1.557573 0.72247434
