12

C 1.2353159 0.37678003 0.98800385
C -1.7887305 -0.5312104 -0.9390192
O -1.0950143 0.9797257 -0.30628332
N 2.3670576 0.07274222 1.4793539
C -0.20019013 0.37791857 -1.0293914
N 0.97996086 0.113521874 -0.35312924
H -1.301076 -1.5083277 -0.9194163
H -2.50354 -0.47151294 -0.11197332
H 0.396979 0.84267807 1.5068785
H -2.2290158 -0.29635087 -1.9007305
H 1.7445978 -0.2869016 -0.876982
H 2.3936558 0.33093706 2.462689
