9

O 0.35846418 -1.1886194 -1.7392906
C 0.4434066 -1.2219034 -0.33423227
C -0.8796725 3.3349683 1.7309879
C 0.09824513 0.06167344 0.29654074
C -0.21748021 1.1203771 0.7631017
N -0.5654259 2.2919369 1.2802429
H -0.18943325 -2.012384 0.096739754
H 1.4818584 -1.4772407 -0.10377257
H -0.5299624 -0.9088078 -1.9903176
