11

N 1.04525644 -1.00730115 0.32174261
C 1.37122720 0.17187352 0.65113513
C 0.49142162 1.36872721 0.82114827
N -1.94208689 -0.01886062 -1.38197000
C -0.25610778 -1.38332478 -0.06784104
C -1.10809631 -0.67290870 -0.77473044
O 0.97115407 2.46440941 0.98766687
H -0.51147606 -2.42205148 0.11538326
H 2.42105697 0.36126247 0.88543358
H -0.60242189 1.20052137 0.84191378
H -1.87992722 -0.06234733 -2.39988216
