11

O 1.7887968 0.0057540303 0.06548008
N -1.5397065 -0.043103654 0.12096346
C 0.76459354 0.21784462 -0.9301864
C -0.2785102 -0.034849346 0.117383085
O -2.2970138 0.2222281 -1.0148807
C 0.8311021 -0.24469878 1.1100808
H 0.7799254 1.2335095 -1.342204
H 0.9149078 -1.2570301 1.5204464
H -2.6591249 -0.07241787 0.17633884
H 0.8030316 -0.51847625 -1.7415035
H 0.89199823 0.49123973 1.9180821
