10

N 1.48002292 0.57975831 0.26587054
C 0.19011873 0.11847191 0.02631569
N -1.41212996 -1.11494734 -0.92520628
N -0.08274963 -0.91166822 -0.80707447
N -1.99167441 -0.23430507 -0.18811345
C -1.05676840 0.54437185 0.42209813
H -1.32711632 1.34416192 1.09413635
H 1.49892769 1.29526839 0.97931054
H 0.55207135 -1.47396524 -1.35019547
H 2.14929801 -0.14714663 0.48285844
