10

O -0.19088879 1.7627082 0.016648708
C -0.36681467 -0.57415205 -1.0071371
C 0.2394508 0.4379013 -0.020822823
O 0.4133816 -0.6144855 2.069107
C -0.1318424 -0.5510458 0.9251221
O -0.59176993 -1.5131919 0.13279468
H -1.3274705 -0.2790631 -1.4338152
H 1.111776 0.090170324 1.2566875
H 0.27817562 -1.0718395 -1.7332133
H 0.5660022 2.312998 -0.20537175
