10

O 1.94772426 -1.01756163 -0.02593002
C -0.82010591 0.40991705 0.95371809
C 0.79012440 -0.40416918 0.20259519
O 0.43462934 -0.14996790 1.49202872
C -0.27864025 0.09858131 -0.42646012
O -0.77099028 0.05020072 -1.70011443
H -0.72818197 0.93835761 -2.07971632
H -1.67077891 -0.18187710 1.30152592
H 2.01579799 -1.20099480 -0.97171421
H -0.91957858 1.45751394 1.25406725
