10

O 0.5177637 -0.40330088 -0.50153255
C -1.3905933 0.0887365 -1.7488878
N 0.76938564 0.17992406 1.6945469
C -0.75599146 0.23298906 -0.4356246
C 1.2119774 -0.3705573 0.65063673
N -1.9371458 0.00015406912 -2.7647398
H 1.4385207 0.09582684 2.4561539
H -1.3792145 -0.23411453 0.33309102
H -0.6418906 1.2928843 -0.18744463
H 2.1671884 -0.88254213 0.50380087
