10

O -1.0199677 -0.6813812 0.48284388
C -0.6411951 0.021690609 -1.8247145
N 0.9836335 0.005082594 0.991716
C -0.10366522 0.7143281 -0.6713175
C -0.034848396 -0.7411728 1.2666006
N -1.0152545 -0.466754 -2.804929
H -0.082913555 -1.4035879 2.1386778
H -0.77946186 1.4403604 -0.2361503
H 1.8198197 -0.007736224 1.5653532
H 0.873853 1.1191703 -0.90807974
