11

N 1.1894377 -0.8562171 -1.2257704
C -0.37768197 0.3246329 1.4909089
C 0.27657 0.2180244 -1.0077542
C -0.6705317 -0.10929302 0.12610132
C 1.9054193 -1.7726092 -1.3626833
O -1.3280301 1.0077738 0.6825709
H -0.7906182 -0.22781545 2.3326912
H -0.2823076 0.3982992 -1.9323386
H -1.2955927 -0.99058694 -0.025655909
H 0.53943366 0.8772908 1.6929458
H 0.8339015 1.1305007 -0.77101547
