11

N 0.3254286 2.9288325 0.45469385
C -0.20864607 1.9103496 0.35327622
C -0.85507107 0.6011738 0.20366642
C 0.009407833 -0.3557111 -0.5975432
C 0.9161922 -1.2919234 0.0654154
O -0.3316758 -1.7210605 -0.46577296
H -1.8242792 0.7363542 -0.28807312
H -1.0485805 0.17437057 1.1942806
H 0.2366181 -0.03716092 -1.6146475
H 1.7991955 -1.6535126 -0.45859277
H 0.9814104 -1.2917123 1.153297
