9

O -1.4271326 0.66195565 0.9236001
C -0.0013693207 -0.87891346 -0.38974255
N 1.71245 0.50570935 -0.53092706
N 1.3460585 -0.6349649 -0.87687886
N 0.71482474 1.2082013 0.22510976
C -0.2810596 0.40636683 0.30830938
H -0.012222885 -1.7510074 0.2710187
H -1.372857 1.5568576 1.2957629
H -0.67869204 -1.074205 -1.2262523
