9

O -1.81364581 -0.04377792 -0.19157841
C -0.54627680 -0.04321625 0.19722374
N -0.13793355 -0.15579305 1.40645017
N 1.71832046 0.04339370 0.17164561
N 1.29443345 -0.09462710 1.33626280
C 0.59487748 0.09954504 -0.74873329
H -2.36812324 -0.14512089 0.59872840
H 0.66501150 -0.71088402 -1.48055091
H 0.59333628 1.05048064 -1.28944812
