10

O 0.53938878 0.25546497 1.77260272
C 0.10799545 -0.10392084 0.53608998
C -1.09513489 0.37947713 -0.25120743
C -0.33535149 0.29962406 -1.34204159
N 0.93270560 -0.03613367 -0.66582108
N 0.55319510 -1.35301227 0.00567351
H 0.49323357 1.21568532 1.85375564
H 1.39599103 -1.59960890 0.53060265
H -0.46146063 0.36543789 -2.41578604
H -2.13056239 0.57698634 -0.02386822
