11

N -1.1110753 1.6570203 -1.592528
C -1.0358254 0.08749762 -0.5592331
C -0.0033739803 1.2067794 -1.5133656
O -0.6721548 0.22682168 0.7461412
C 1.2111516 -1.2634022 0.62486756
C 0.70766824 0.061435398 1.032647
N 1.5788136 -2.3042848 0.28689116
H 0.80362767 0.17515562 2.1144779
H -0.65022147 -0.80862945 -1.0506663
H -2.1190999 0.12685376 -0.6055571
H 1.2904894 0.8347528 0.51632524
