11

N -2.07184658 0.96170120 -1.61214616
C -0.96493974 0.29792833 0.68398477
C -1.59956740 0.68103689 -0.59683249
O -0.24102503 -0.90262712 0.58279931
C 0.82502049 -0.86529349 -0.31919187
C 2.55607058 0.94986560 0.38521000
N 1.80382268 0.10853235 0.05594965
H -1.73992108 0.12097900 1.43162842
H 0.48558433 -0.62481797 -1.33570855
H -0.33051094 1.12885345 1.02123115
H 1.27731272 -1.85615819 -0.29692409
