11

N -1.9978219 -0.5193964 -1.9142554
C -1.5759128 0.027142167 -0.9894908
C -0.99964476 0.6976322 0.19541691
O -0.31133884 -0.20405449 1.0271538
C 0.8053258 -0.82298446 0.43647987
C 1.8525217 0.15523775 0.07878455
N 2.6511052 0.9403079 -0.2003879
H -1.8031867 1.1169596 0.8006963
H -0.34879452 1.5143173 -0.1458543
H 1.1963863 -1.5211362 1.1780797
H 0.53136057 -1.3840253 -0.4666226
