17

C 2.4339497 -0.0470399 0.052412543
N -1.278217 0.26790038 -0.53248346
C -1.7473079 0.52556634 -1.8788233
O 0.9263272 0.34944895 -1.1626538
N 0.52985275 -0.3242325 0.86067474
C 0.049734894 0.090237275 -0.2772059
C -0.24996243 -0.5091956 2.0571182
H -0.8388841 -1.4407846 2.0489638
H 2.6682096 0.21859375 1.0803727
H 2.9214945 0.61955994 -0.65504676
H -0.9327352 0.3300609 2.2524352
H 2.5837598 -1.0988224 -0.16064887
H -2.7531607 0.9473765 -1.8325306
H -1.0754465 1.248501 -2.346178
H -1.7646465 -0.37819847 -2.5011265
H 0.43190694 -0.5726119 2.9132438
H -1.9048747 -0.22635977 0.081476144
