17

C -2.29659882 0.07562769 0.54975388
N -0.89223805 -0.06943794 0.87943265
C 0.11388738 0.07337928 -0.05782066
O -0.34065021 0.66820002 -1.17064661
N 1.34110244 -0.25798917 0.05611454
C 1.77017382 -0.86146313 1.29918286
C 0.63766714 0.90349928 -2.17921113
H -0.67130750 -0.72347939 1.60962414
H -2.86761884 0.05994477 1.48213354
H -2.67173884 -0.71819371 -0.10800957
H 1.28463769 -1.83189226 1.49308277
H 2.84562493 -1.05120153 1.23950927
H 1.59793805 -0.21191554 2.17107024
H -2.46548060 1.03658359 0.05875712
H 0.09448469 1.38451233 -2.99529797
H 1.43251016 1.55732606 -1.81068586
H 1.08760739 -0.03350022 -2.51698962
