12

C -1.3856467 -0.6301559 -0.20989709
C 1.5944464 0.205564 -0.14374602
N 1.5383605 -0.30402964 1.0149529
C -0.70743304 0.7234085 -0.08255938
O 0.54650486 0.75299686 -0.77388364
H -0.54425573 0.9874638 0.966877
H 2.478454 0.29368097 -0.78383
H -0.80416924 -1.3967104 0.30926862
H 2.455661 -0.64168537 1.2911046
H -2.3818994 -0.58668137 0.24239132
H -1.2953508 1.5057502 -0.56791335
H -1.4946721 -0.90960187 -1.2627649
