12

C -1.33595777 -0.71326256 0.26008318
C -0.77579849 0.59019992 -0.28354572
N 1.65665389 0.21993397 0.83441201
C 1.54522320 0.18677602 -0.42729249
O 0.39169238 0.37049273 -1.08345745
H -0.63569609 -1.16064182 0.97053392
H -2.27974399 -0.51968737 0.78043931
H 2.62481024 0.06913571 1.10207698
H -1.52725251 -1.42020250 -0.55364248
H 2.34627165 0.02731187 -1.15656207
H -1.48039014 1.06604411 -0.96940082
H -0.52981231 1.28389996 0.52635539
