12

C -0.8437417 0.3990763 -0.05168141
C 1.5143943 0.42498165 0.6987962
N 0.6290516 -0.13329278 1.4574939
C -0.8627132 -0.5899488 -1.1702548
O 1.136898 0.93769264 -0.3875871
H -1.9141059 -0.7894537 -1.4233491
H -0.9527383 1.4428796 -0.3172854
H 2.5810294 0.46800372 0.95871043
H -1.4556999 0.11984337 0.7974303
H -0.41476563 -1.5353582 -0.85463995
H -0.34181204 -0.21770097 -2.0530798
H 0.92420346 -0.52672267 2.3454468
