12

O 0.08290963 -0.36560449 1.12213622
C -1.15527373 -0.17502304 0.45866315
C 1.07235479 -0.55801173 0.14105061
O 0.53563034 -0.10110272 -1.07864003
C -0.71572261 0.51325297 -0.82366133
O 2.23324969 0.08034389 0.48953669
H -1.63671218 -1.13995193 0.25108675
H 1.33215371 -1.61841762 0.03634394
H -1.80253942 0.43229744 1.09533525
H 2.01948097 1.00741634 0.66788667
H -0.59430392 1.59503900 -0.68027897
H -1.37122740 0.32976152 -1.67945941
