10

N -0.48284804 -1.35027157 -0.76881021
C -0.76365290 -0.11814437 -0.28822616
O -1.84214014 0.43632910 -0.36110423
C 0.40059724 0.58050542 0.39022684
O 1.54288541 -0.14348919 0.39413131
N 0.33378618 1.72784612 0.90644490
H 2.20852165 0.39707768 0.84640591
H 0.43563433 -1.75164048 -0.68077700
H -0.61295061 2.08748091 0.78494584
H -1.21983313 -1.86569330 -1.22323717
