10

O 0.79599416 1.9315428 -0.76015896
C 0.3552784 0.8900052 -0.37658453
C -0.9297643 0.4400521 0.32586282
N -0.50826174 -0.9577168 0.09315676
C 0.83300376 -0.5649271 -0.3879371
H -0.953538 0.7658611 1.3750799
H -1.8737712 0.7240276 -0.15252735
H -0.49337298 -1.5250877 0.93165237
H 1.6621424 -0.725911 0.3146329
H 1.1122893 -0.9778457 -1.3631767
