10

O 1.11516050 1.20083027 0.53756690
C -0.01341953 -0.85530121 0.18460393
C -0.96683789 0.35033004 0.07215245
N 0.12263081 1.20858975 -0.53874435
C 1.04360848 0.10966334 -0.31112975
H -1.34432951 0.77500399 1.00282041
H -1.78043019 0.22790299 -0.64700797
H 0.16306284 -1.28631290 1.17174279
H 1.91045685 -0.08566594 -0.93884314
H -0.24990256 -1.64503982 -0.53316116
