12

N 0.26005033 2.2024229 0.9597735
C 0.15338446 1.0146332 0.5409209
C 0.069948204 -0.69243026 -1.0003973
O -0.5714049 0.016557531 1.1244507
C -0.39692438 -1.1841815 0.37091795
N 0.7650108 0.51549643 -0.5960558
H -1.3461946 -1.7205335 0.3489386
H 0.36909264 -1.7968122 0.8593952
H 0.9842236 1.2113264 -1.294249
H -0.23906521 2.3178496 1.8353916
H -0.7864902 -0.48245856 -1.6556692
H 0.7383693 -1.4018703 -1.4934173
