12

N -0.74486953 -1.021922 -1.0292537
C -0.23450838 -0.63491005 0.27984828
C 0.5679182 0.661681 0.08510682
O -0.17019187 1.5719706 -0.67877287
C 0.8922376 1.257673 1.3946546
N 1.1579132 1.683412 2.4340596
H -0.0447737 -1.5300473 -1.5618222
H -1.5586983 -1.6155248 -0.94981885
H -1.0907984 -0.4113306 0.9291628
H 0.38543743 -1.3901274 0.7790833
H 1.5281609 0.42511547 -0.40331143
H -0.68782693 1.0040102 -1.2789361
