11

N -0.4474983 -2.335315 1.5611795
C -0.544651 -1.300126 1.0489403
C 0.7233022 0.39225718 -1.302399
C -0.6458893 0.029381096 0.40716225
C 0.7183564 0.6960575 0.1896109
O -1.0735781 -0.17145815 -0.95641464
H -0.6991375 0.62818396 -1.5402979
H 1.1629744 -0.58474237 -1.5293684
H 0.6681423 1.7713042 0.38928348
H 1.5266544 0.2549676 0.7785353
H -1.3886753 0.6194894 0.95376825
