11

N -0.06952298 -2.39486409 1.56789278
C -0.77419639 1.00060477 0.67189081
C 0.41712525 0.01080229 0.64420080
C 0.50476033 0.07833072 -0.87834571
C 0.16962399 -1.34837267 1.13895230
O -0.88101091 0.47088210 -1.12349180
H -0.89402863 1.32824607 -1.56756566
H 0.70515806 -0.86265641 -1.39432715
H 1.18668384 0.86318880 -1.20856126
H -1.66666759 0.43834939 1.00060764
H 1.30207509 0.41548894 1.14874688
