11

N -1.77611219 -2.04557114 0.28614879
C 1.21791027 0.23333266 0.61178834
C -0.13217895 1.23243158 -0.61344429
C -0.14736384 -0.12306449 0.06115661
C -0.95876635 -1.13981414 0.12378896
O 1.16684836 1.50009565 -0.06261725
H -0.88277038 1.94736747 -0.25802707
H -0.11979113 1.22332760 -1.71082284
H 2.05544546 -0.38328645 0.26092878
H -1.69914316 -2.79484113 -0.39853706
H 1.27592203 0.35002236 1.69963671
