10

O 1.4697974 0.6203559 1.4022888
C -0.8366317 0.07268133 -0.8647036
C -0.071421996 -0.9145524 0.0593339
C 0.52642477 0.3847655 0.4890434
N -0.10073799 1.2161525 -0.25629687
H 0.6077834 -1.6129874 -0.43476993
H -0.62992215 -0.03703928 -1.9328159
H -1.9155815 0.12820607 -0.6985022
H 1.622757 1.576669 1.4262682
H -0.6724671 -1.4342514 0.8101539
