10

O 2.0056987 1.1499934 0.43164533
C 0.96065646 0.60034233 0.20707211
C 0.4336133 -0.84711736 0.23426124
C -0.9152946 -0.24337126 -0.23779064
N -0.264627 1.0606337 -0.19836934
H 0.9246078 -1.5140626 -0.47739202
H 0.42295614 -1.2993549 1.2272277
H -1.2349693 -0.5499986 -1.2377062
H -1.744622 -0.34960333 0.4683022
H -0.58801943 1.9925385 -0.4172502
