9

N -1.35548027 0.08804292 -0.84907230
C -0.18102304 0.91086912 -0.82696443
C 0.70008069 0.43407449 0.05617535
C 0.05628658 -0.77056796 0.64430359
N -1.24113262 -0.85600843 -0.03742745
H -0.13397318 1.77089136 -1.48202461
H 0.60424948 -1.70338471 0.46740148
H 1.67760452 0.82531482 0.30442960
H -0.12661188 -0.69923158 1.72317860
