9

N -1.4977087 0.13847648 0.17996311
C -0.6536959 -0.8210514 0.6024255
C 0.6415933 -0.6047322 0.15716378
C 0.5367347 0.5623692 -0.6128533
N -0.8417567 0.97084713 -0.6148559
H -1.0235927 -1.6188022 1.236236
H 0.0887442 1.5694389 0.036112342
H 1.5277388 -1.1926196 0.34751707
H 1.2219427 0.9960737 -1.3317087
