10

O -0.32756945 -1.6619064 0.7759685
C -1.3597394 0.4840591 0.37126854
C 1.0653294 0.21157655 0.032127146
C -0.21033733 -0.33463195 0.5820469
O -0.740174 1.678003 -0.184045
C -0.08808719 0.6478727 -0.800156
H -0.34521618 0.36565024 -1.8186843
H 1.5660375 1.0165551 0.5644748
H -1.2771565 -1.8449816 0.8435673
H 1.7169131 -0.56219685 -0.36656776
