10

O 0.33706084 -0.51035815 -2.234681
C 0.15021358 -0.3238563 -1.0683978
C -0.9079664 0.48478156 -0.2657831
C 0.008559063 0.26809937 0.94101703
O 0.07356572 -1.1283303 1.1351799
C 0.97490394 -0.55453384 0.18890671
H -1.9078428 0.059499107 -0.17408271
H -0.96530974 1.5145333 -0.6335593
H 0.20071964 0.92020464 1.7840315
H 2.0360959 -0.73003924 0.32736838
