9

O 0.93086029 -0.65747482 -0.50153749
C -0.91708462 -1.38446764 0.21841780
N -1.00435307 -0.02828785 0.37940293
N 0.62480984 1.60410051 -0.23040783
C 0.15689579 0.33888923 -0.08507879
N 0.18849147 -1.83662668 -0.28948207
H 0.10914872 2.30074058 0.28345142
H 1.62438684 1.72627033 -0.27124708
H -1.71315525 -2.06314369 0.49648139
