11

C -0.7725267 0.87929374 1.5450441
N 0.5830771 0.5138162 1.1775539
C 0.834603 -0.053997725 0.094711706
O -0.14523946 -0.38817003 -0.8380647
C 0.25190833 -1.0258495 -1.9648591
O 1.3774664 -1.3308818 -2.2367537
H -0.78536606 1.9538127 1.7489322
H -1.0170724 0.36700362 2.4801261
H -1.5355551 0.6438029 0.794446
H 1.8380386 -0.33705714 -0.20853713
H -0.62933356 -1.2217729 -2.5925996
