11

C 0.70781827 0.28592804 -1.4383577
N -0.79110724 0.021661302 0.48844862
C 0.25902593 0.8141896 -0.089192905
O 0.6313874 -1.3632342 1.6140846
C -0.48610783 -1.0730149 1.2472162
O 0.18895061 -0.65164727 -1.9876859
H -1.3850095 -1.657966 1.5170401
H -0.05840931 1.857164 -0.20570871
H -1.7341241 0.12206654 0.14913066
H 1.1130831 0.8052665 0.5989686
H 1.5544925 0.83958626 -1.8939433
