10

O 0.03415527 -2.5519624 0.51782167
C -0.23947045 -1.9932435 -0.50778866
O -0.23453142 -0.66906554 -0.6984708
C 0.13519864 0.09505143 0.4625039
C 0.103455484 1.513129 0.10809613
C 0.089811 2.688856 -0.13976622
H -0.5350596 -2.4916728 -1.4435905
H -0.5637592 -0.11997323 1.276072
H 1.1350617 -0.20471309 0.7919121
H 0.07513857 3.7335944 -0.36678955
