10

O 0.64485335 -1.6653872 1.4285678
C 0.38957262 -0.36531666 1.6365441
O 0.040007535 0.3411433 0.648685
C -0.10542808 -0.08901004 -0.6168301
C -0.49274534 0.86858666 -1.5588443
C -0.82784086 1.6647378 -2.408725
H -1.1212066 2.366095 -3.1564767
H 0.464336 0.10487214 2.6048093
H 0.9234552 -2.094954 2.245214
H 0.08499624 -1.130767 -0.8229441
