11

C 0.26749742 -0.219458 -0.14642431
C 1.1729165 0.8032236 -0.7800543
O 0.5163064 -1.4409447 -0.21028963
C -0.9310389 0.21429917 0.4853398
O -1.5079781 -1.1175085 1.1750872
H 0.7798567 1.8177861 -0.68645006
H -0.79935086 -1.7343378 0.7940734
H 2.1562304 0.7458744 -0.30265567
H 1.3018316 0.5594974 -1.8386102
H -1.989525 -0.65357286 0.30596668
H -0.96674657 1.0251411 1.2040172
