11

C 1.54208863 -0.12278073 -0.36646863
C 0.05373454 -0.14003477 -0.25000636
O -0.57352837 -0.62776473 -1.35427257
C -0.63528748 0.25507968 0.81942253
O -2.01807506 0.08184366 0.79592893
H 1.84909303 0.47721006 -1.22975209
H -2.43753279 0.92850825 0.98641187
H -1.52274769 -0.62408401 -1.15102063
H -0.17563238 0.61876202 1.73127978
H 1.99589690 0.29220748 0.53643503
H 1.92199045 -1.13894678 -0.51795760
