11

C -0.41032904 0.91771144 -1.1531014
C -0.072572164 -0.33276936 -0.3779123
O -0.054122396 -1.4386234 -0.8779977
C 0.2778737 -0.18520083 1.0916386
O 0.65326005 -1.402418 1.653855
H 0.5165653 1.3410095 -1.5589563
H -0.87113327 1.6817813 -0.5183698
H -1.0695249 0.6765637 -1.9900789
H -0.6020319 0.23903577 1.6034577
H 1.0828096 0.5612863 1.1837009
H 0.5492048 -2.0583763 0.94376445
