9

O -0.52973634 -1.20119092 -0.40475799
C -0.83537922 0.03007570 -0.93353397
C -0.13775797 0.98125169 -0.30407740
O 0.86406247 -1.92662222 1.25527257
C 0.39754720 -1.03501513 0.59974071
N 0.63283008 0.31758012 0.65299021
H -1.55457798 0.05611334 -1.73557825
H 1.27571906 0.72752032 1.30850542
H -0.11270716 2.05028716 -0.43856101
