9

O -1.1527872 -1.2887764 -1.0836339
C -0.37935242 -0.47367203 -0.34739286
C 0.4767014 -0.7913339 0.6515372
O 1.0279598 0.39384398 1.0830718
C 0.4690302 1.3337088 0.31829128
N -0.37838724 0.8884235 -0.5545058
H -1.6323924 -0.725472 -1.706397
H 0.799968 -1.6930301 1.1444252
H 0.76926 2.3563082 0.49460438
