9

O -0.5575492 -0.53060454 2.1610415
C 0.12885045 1.0282515 -0.7943863
C 0.3148654 -0.2860832 -1.0379491
O -0.25995982 1.1984613 0.53991044
C -0.28362218 -0.037275977 1.0236785
N 0.043498356 -0.9629257 0.14764707
H 0.21468854 1.9252102 -1.3845783
H -0.21579666 -1.5597738 1.2959759
H 0.61502504 -0.7752601 -1.9513402
