10

O 0.5255583 1.3617718 -0.8579764
C 0.19131123 -0.6056482 -0.21274479
C -0.56744504 0.40465254 -1.0590831
O 1.7953888 0.86337376 1.008008
C 1.0261985 0.5690025 0.141759
O -0.6416843 -1.0430285 1.2013736
H -0.67744786 0.15356392 -2.1149938
H -0.11221075 -1.7586956 0.6185005
H -0.041801892 -0.72531354 1.9055111
H -1.497867 0.78032136 -0.63035417
