10

O 1.16644822 0.91684255 -0.39428318
C -1.03264975 0.23098238 -1.31216070
O 1.17752076 1.39210904 1.83940093
C -0.27740208 -0.28029493 0.64450417
C 0.77614866 0.80031112 0.89127076
C 0.25555805 -0.13913261 -0.83629928
H -1.51360502 -0.72628778 -1.59820362
H -0.09187260 -1.26065216 1.08441050
H -1.29581786 0.06510601 0.86669271
H 0.83567163 -0.99898382 -1.18533232
