10

O -0.047683276 -1.5053874 0.29697824
C 0.46748784 -0.4638928 -0.5918808
O -1.6437141 -0.870904 1.8021234
C 1.6569505 0.22033894 -0.21782996
C -0.8699911 -0.6443238 0.9301777
C -0.43623865 0.598109 0.15120922
H 0.055096526 1.3452333 0.7885751
H 0.15532005 -0.6739744 -1.6195563
H -1.1833869 1.0633204 -0.49251968
H 1.8461592 0.93148065 -1.0472769
