10

O 0.95376027 2.092902 -1.1646491
C 0.6722815 1.1148404 -0.55078363
O 1.1315097 0.7529573 0.7046825
C 0.49965218 -0.5380508 0.5667306
C -0.9651667 -0.36679173 0.50980157
C -0.12155213 -0.14759772 -0.7432768
H 1.0744703 -1.4099193 0.84641623
H -1.5564362 -1.2785834 0.4802631
H -1.4285718 0.47554028 1.0177279
H -0.25994712 -0.69529724 -1.6669124
