12

C -0.57471555 0.66987395 -0.29337287
N 0.28549516 -1.2698336 -0.34150195
C -0.90366584 -0.6671342 0.23104635
N -0.50797725 0.401564 1.1590357
C 0.7355832 0.07012603 -0.81953686
O 1.8991566 0.5847841 -0.26470292
H -1.849071 -1.1873511 0.32313788
H 0.8519277 0.07919017 -1.904138
H 0.90055317 -1.6874313 0.3551142
H -1.1898584 1.4626875 -0.7028882
H 1.6901646 0.7304038 0.67161256
H -1.3375926 0.8131206 1.5861943
