11

N -1.4564891 -1.1054932 1.3034248
C -0.67693275 -0.18766029 -1.208115
C 0.47834882 0.25849417 -0.8616594
N -0.5839145 0.6769687 0.032845262
C -0.7431634 -0.056414824 1.2384313
N 1.811503 0.4805414 -0.88176537
H 2.0941777 1.3674526 -0.4902127
H -1.448915 -0.67859817 -1.7660642
H -0.26336452 0.45208967 2.0834165
H -1.511594 -1.4219047 2.2735167
H 2.3003438 0.21452442 -1.7238175
