11

C -1.472651 0.7945434 -0.45071793
N -0.48049536 -0.085127555 0.1288874
C 0.84232223 0.024567265 -0.12088051
O 1.3854233 0.844262 -0.8376571
C 1.6760788 -1.0243912 0.6083477
O 1.1985996 -1.8613728 1.3296821
H -0.9525979 1.5174885 -1.0830156
H -2.1820886 0.2293812 -1.0639071
H -2.0192196 1.331764 0.33063933
H -0.75582117 -0.833446 0.75160515
H 2.7604496 -0.93766886 0.40701658
