11

C 1.89731035 0.99486842 -0.18194210
C -0.37787057 0.24367337 -0.52194116
C 0.75282736 0.18840959 0.17678301
O 0.90147475 -0.62066004 1.26475949
C -1.60227482 -0.55406296 -0.19502264
N 2.83450228 1.62328792 -0.43380457
H -0.40632376 0.91377387 -1.37493577
H -1.89008853 -1.17928373 -1.04797139
H 1.78666175 -0.52053835 1.63138648
H -1.44870067 -1.20050884 0.66950727
H -2.44751790 0.11104094 0.01318126
