11

O -0.64077324 -0.9081258 -1.6193408
C 0.05333278 1.1238499 0.8818664
C 0.9496323 0.64134187 -0.24774495
C -0.14012004 -0.42757857 -0.42489028
C -0.91193134 0.21371578 0.6823977
N 0.07668037 -1.804564 -0.6966041
H -1.8686354 0.0016254816 1.1449709
H 0.179293 1.9257759 1.5985067
H 1.0441403 1.3212361 -1.0985235
H -0.6761393 -2.3426087 -0.25403473
H 1.9345206 0.25533205 0.033396475
