11

O 1.2950561 0.94606787 1.2913513
C -0.8855986 -0.26650608 0.71846896
C -0.6110914 -1.0934566 -0.5040206
C 0.47692335 0.5005531 0.3957585
C 0.6254552 -0.600043 -0.7148733
N 0.25535744 1.5901843 -0.45640337
H 1.203672 1.9474618 -0.62539196
H -1.7947652 0.34139633 0.73971874
H -1.2289214 -1.7900482 -1.0591154
H -0.74651617 -0.79869676 1.6613436
H 1.4104286 -0.77691257 -1.4468365
