10

O -1.0211767 -0.12904623 -1.2609221
C -0.1417597 0.74668455 -0.7854093
C 0.2855533 0.087104045 0.39924705
O 1.6098086 -0.16241716 0.7462197
C -0.63655293 -1.0269132 -0.12802897
O -0.11450232 2.0134144 -0.9036878
H -1.5428474 -1.2812326 0.4236802
H -0.018080648 1.6463808 0.3334368
H 1.696103 0.01243607 1.6897231
H -0.11654515 -1.9064107 -0.5142589
