10

O 1.35005149 1.97151279 -0.32929668
C 0.58961114 1.04932122 -0.08693367
C -0.56375312 0.77436968 0.64556250
N -0.63835782 -0.65373690 0.24136281
C 0.62211628 -0.43742219 -0.57870560
H -1.26933251 1.25311938 1.30809172
H -1.44246084 -0.93010804 -0.32754393
H -0.52467724 -1.34823859 0.98291350
H 0.43611231 -0.61575007 -1.63914218
H 1.44069036 -1.06306677 -0.21630860
