10

O 0.79662615 1.9334573 -0.759632
C 0.35543185 0.89011955 -0.37698922
C -0.9289323 0.4423044 0.32755858
N -0.5065201 -0.9561429 0.09626812
C 0.8333834 -0.5641989 -0.38943022
H -0.955405 0.7664506 1.3769139
H -1.8714523 0.72718096 -0.15304577
H -0.49393815 -1.5296407 0.93186057
H 1.6617025 -0.7315842 0.3120635
H 1.109104 -0.9779456 -1.3655676
