10

O -0.9305647 0.4077807 2.0949492
C 0.97644186 -0.10580699 0.6305269
C -0.37444523 0.15757751 1.0483091
N 0.4494332 -0.2579115 -0.89975566
C -0.91716564 0.002761816 -0.3933373
H 0.9379996 -1.1078336 -0.30349043
H -1.6359812 -0.7936487 -0.60478455
H -1.2806668 0.95731705 -0.78450435
H 0.86755115 0.3289839 -1.6112983
H 1.9073974 0.41077974 0.82338524
