11

C 1.0251102 1.009446 -1.0623041
C -0.044959538 -0.6904788 0.6904986
C -0.2168309 0.2545164 -0.25040102
N -1.2875224 -1.1832081 1.2516274
N -2.4094698 -0.8284896 0.9616128
N -0.8017315 1.0451483 -1.0130293
H 0.8444841 1.7823868 -1.8086894
H 1.5712354 1.4436433 -0.22405276
H 1.5028979 0.15585212 -1.5426838
H -1.0885042 -1.9166719 1.965346
H 0.9052903 -1.0721443 1.0320755
