10

O 0.990421 0.5082915 -1.7973158
C 0.38235843 0.18483783 -0.6551199
C 1.1490017 -0.27896476 0.43612358
N 0.5656018 -0.6028944 1.5675395
N -0.7612327 -0.49326542 1.6812131
C -1.42774 -0.055472676 0.6274946
N -0.92169726 0.30017853 -0.56469506
H 0.301257 0.7963688 -2.4171581
H 2.2261934 -0.3818243 0.378259
H -2.5041633 0.022744926 0.74365896
