10

O 1.9181571 -0.7894726 0.06294151
C 0.6606438 -0.30621928 0.119483605
C 0.3866554 0.7886424 1.0081092
N -1.4615555 1.8874351 -0.10235368
N -0.2855659 -0.77556443 -0.6098826
C -1.3442354 -0.5484766 -1.2737638
N -0.5922749 1.5376779 0.5409969
H 1.9483665 -1.4911165 -0.60275555
H 0.8678016 1.0289787 1.9424192
H -2.0979924 -1.331885 -1.0851946
