10

O 1.7167462 -0.078027315 -0.9356113
C 0.5162577 -0.008019321 -0.297209
C 0.63546896 0.5171425 1.0495211
N -0.41344443 0.6542617 1.7931273
N -1.3255599 0.76597697 2.4503586
C -1.66987 -0.4820532 -1.444168
N -0.56901944 -0.38939825 -0.8267297
H -2.0421433 -1.5201205 -1.3726995
H 1.591107 0.81992394 1.451704
H 1.5604569 -0.27968657 -1.8682935
