9

O -1.2530019 0.033952955 -1.6142237
C -0.5113956 -0.13249561 -0.5137713
N -0.67770064 -1.1481104 0.28974536
O 0.25675982 -0.97681516 1.2958828
C 0.9498168 0.14273766 1.053848
C 0.52661026 0.7451669 -0.080316134
H -1.8804569 -0.7024405 -1.6637635
H 1.7141364 0.3854181 1.7785946
H 0.8752317 1.6525861 -0.5459961
