11

C -1.30387943 0.31888761 -1.08825920
C 0.64556397 -0.56988939 0.32323226
C -0.20117032 0.60172732 -0.09236975
N 2.13706701 -0.29366581 0.47594746
C 1.46692636 -0.46096052 1.51666527
O 0.01350525 1.69988857 0.37336061
H 0.38211006 -1.54566888 -0.08384332
H -1.96910227 -0.46489250 -0.71263815
H -0.87515276 -0.04252536 -2.02966690
H -1.87608772 1.22887717 -1.27594328
H 1.58021995 -0.47177825 2.59351514
