10

C -0.63027579 -0.29733498 0.17829418
C -0.23112603 -0.39234905 -1.28172028
N 0.46030358 0.68216905 -1.39939902
C 0.16861920 1.01193990 0.02354586
N 1.21042806 0.50760628 0.96389877
C 0.53401884 -0.57492850 1.11186634
H -1.66690654 -0.40328146 0.49935094
H -0.42362839 -1.12891309 -2.06008895
H 0.79178127 -1.41956462 1.74914938
H -0.21321389 2.01465632 0.21510295
