10

C -0.5056415 -0.62404716 1.0985706
C -0.6747449 0.07702699 -0.23713005
N 1.4019026 0.19025648 -0.79625577
C 0.5840756 0.7907547 0.2942311
N 0.55703837 -0.04418852 1.5295936
C 0.34904328 -0.37895054 -1.2588603
H 0.2885284 -1.0123179 -2.1423903
H -1.0732621 -1.4013282 1.6081021
H 0.69097453 1.8658956 0.43767273
H -1.6179142 0.5368986 -0.5335338
