10

N 1.18918479 1.40875828 1.11546976
C -1.01911981 -1.06419963 -0.15765006
C 0.23869127 -0.13091567 -1.98184809
C 0.56031463 0.63679933 0.34620833
C -0.45699750 -0.31033063 0.77274241
O 0.80851565 0.63170311 -1.03272514
O -0.67725582 -0.97343765 -1.48905551
H -1.78661943 -1.81505511 -0.00041334
H -0.71408797 -0.36706265 1.82109240
H 1.85737418 1.98374062 0.60617900
