10

N 1.4370425 1.5606602 -0.37720284
C 0.516181 -0.6596192 -0.4480429
C 0.522032 0.7481112 -0.08448911
C -1.666929 0.42851517 1.0195864
C -0.5277696 -1.3825574 -0.077290125
O -0.6049697 1.1596715 0.639094
O -1.5817968 -0.8498031 0.63189864
H -0.68128234 -2.438774 -0.27325785
H 1.3521811 -1.0613563 -1.003077
H 1.2353115 2.495152 -0.027219258
