11

N -0.73235065 -0.759735 1.558416
C -0.19360213 -0.13218167 0.4214254
C -0.13017361 -0.6111747 -0.8708982
N 0.40229473 0.39561242 -1.6173074
N 0.69263875 1.4826412 -0.9058273
C 0.33345577 1.177792 0.33373272
H -0.22383249 -0.530643 2.4020145
H -0.7715417 -1.7651561 1.459976
H -0.4180547 -1.5578853 -1.3017722
H 0.5849588 0.39650643 -2.6058369
H 0.45620716 1.9042234 1.1260767
