11

N -0.69395718 -0.39099043 0.88064446
C -0.85253046 -1.20023998 -0.07894384
C 0.67708639 0.52405396 -0.84444171
N -0.07025927 -0.75255008 -1.24791284
N 0.42300243 1.66332131 1.34486635
C 0.20323688 0.62535121 0.42299415
H 0.70753071 1.31171698 2.25009720
H -1.46015610 -2.09640112 -0.09990414
H 0.61493327 -1.44532077 -1.55842478
H -0.66469229 -0.54259572 -2.05381480
H 1.11580555 2.30365432 0.98483926
