11

N -0.3844208 0.11195657 1.1178869
C 0.7291507 -0.1273316 0.25183204
C -1.3817325 0.35013112 0.37661618
N -0.97740906 0.29578856 -1.0419861
N 1.9506601 -0.32498533 0.9184466
C 0.51182246 -0.06652252 -1.0861735
H -1.1100173 1.1924427 -1.5166816
H -2.3976176 0.5718968 0.6791893
H 2.673657 -0.5563392 0.25258407
H -1.4973513 -0.40252277 -1.5785111
H 1.8832581 -1.0445143 1.6267967
