11

C 1.4042236 0.54649407 -0.7460897
C -0.41984132 0.3046955 1.1368438
C 0.14601672 0.035304718 -0.120268226
N -0.6572303 -0.8190726 -0.75095296
N -1.5508537 -0.38206336 1.2596377
N -1.631399 -1.0223373 0.11292676
H -2.4043272 -1.6357856 -0.09485195
H -0.07436466 0.94629234 1.9354438
H 2.2861624 0.23870595 -0.1728653
H 1.4064744 1.6394633 -0.80148226
H 1.4951394 0.14830278 -1.7583414
