11

C -1.1324039 1.1444136 0.6029122
C -0.22000821 0.028692393 0.20994946
C 0.761212 -0.015026194 -0.7462115
N 1.2450371 -1.275632 -0.65656495
N 0.6137931 -1.9770156 0.28700548
N -0.27092037 -1.1949364 0.81410885
H -2.1778243 0.8584011 0.4600206
H -0.9347262 2.038937 0.00627526
H -1.0014814 1.399501 1.6597587
H 1.1393751 0.71133035 -1.4493018
H 1.9779466 -1.7186655 -1.1879524
