11

C -0.031165658 -0.06348682 -0.21636595
C 0.7797757 -0.21239392 -1.4641702
C 0.37732887 0.01688732 1.1087351
N -1.8154088 0.007449924 0.98731256
N -0.7123108 0.02557529 1.8866963
N -1.3714879 0.0054200906 -0.24598265
H 1.756076 0.26879528 -1.3573378
H 0.9406026 -1.2696931 -1.692565
H 1.3749721 0.049449895 1.5258096
H 0.24929687 0.23954791 -2.305578
H -1.547679 0.93244815 1.7734462
