11

C -0.37037884 0.36303570 1.13690126
C 0.12166393 0.04912108 -0.14077197
C 1.16025521 0.73039005 -0.97338974
N -0.51483773 -1.04158832 -0.56284809
N -1.32829574 -1.32943129 0.43316489
N -1.29221422 -0.53107767 1.47849444
H -1.95202058 -2.12094420 0.39597023
H 0.90110838 1.77790838 -1.15560776
H -0.11110559 1.17153854 1.80612704
H 1.24603528 0.22246221 -1.93574445
H 2.13978940 0.70858526 -0.48229595
