9

N -0.5461984 0.14357223 0.087228216
C -0.068723485 -0.4011316 1.1279352
N -0.11763689 0.81014544 -2.0788617
C 0.3128696 0.2798176 -1.0111778
O -0.80736774 -0.5755861 2.225412
H 0.62668455 0.8394314 -2.7710707
H 1.3428934 -0.09380806 -0.87789404
H -1.688917 -0.21978246 2.025286
H 0.946396 -0.78265834 1.2731429
