11

N 0.014735614 1.2602274 -1.317507
C -0.59010404 0.83204186 -0.2394433
C 1.0064214 -1.007843 0.45943767
C -1.0369602 0.4604069 0.9101936
C -0.39852908 -0.8471276 0.6644769
O 1.8212516 -0.13046335 0.14637846
H -1.6613922 0.84876907 1.7059761
H 1.3467413 -2.0563018 0.5662642
H 1.0099677 1.0291923 -1.3393706
H -0.48544207 1.3499557 -2.1889384
H -1.0266901 -1.7388576 0.63253236
