9

N -1.5122769 -0.11216893 0.1781163
C 0.7860864 0.36930493 -0.14495446
O -0.83852017 1.980283 -0.482475
C -0.6028113 0.83452106 -0.16629285
C 2.0396893 0.30444428 -0.35864672
C 2.5290782 -1.320921 0.077273205
N 1.3278385 -1.172411 0.2821244
H -1.244938 -1.0358096 0.46831688
H -2.484146 0.15275733 0.1465384
