9

N -0.26349396 1.2181709 1.5210961
C -0.37020293 1.1566828 0.16836415
O -0.74376905 2.0675213 -0.5402053
C 0.011379274 -0.13958085 -0.41013
C 0.30097732 -1.16402 -0.97518396
C 0.6333789 -2.3381832 -1.6321124
N 0.91399604 -3.3202302 -2.1768887
H 0.039651126 0.43469587 2.0767486
H -0.5219169 2.0849433 1.9683115
