10

C -0.22461206 0.9742605 -0.36952358
C -0.62789816 -0.04009746 -1.2356071
N -0.45306814 -1.3345318 -0.9879398
N 0.13367668 -1.7120141 0.13839619
C 0.5417098 -0.788415 1.0051693
C 0.38747373 0.5820179 0.8031044
H -0.39099926 2.0187166 -0.6158716
H -1.1159756 0.1823671 -2.1815102
H 1.0122845 -1.1795393 1.9020076
H 0.73740876 1.2972355 1.5417751
