10

O 1.42621370 0.10094217 -1.20547405
C 0.38920751 -0.30755452 1.22336571
C 0.44418502 -0.04811612 -0.26746997
O -1.88537170 0.70641384 -0.88982773
C -0.85436467 0.26518215 -0.17349493
O -1.04349900 0.03189062 1.15627522
H 0.50329802 -1.33459495 1.58107964
H 0.90855436 0.39973334 1.87558597
H 1.67980904 -0.77190998 -1.53472996
H -1.56803223 0.95801346 -1.76530968
