9

O 1.8847013 -0.05922527 -0.12224453
C 0.55503523 -0.0008343919 0.03263379
N -1.5294023 0.7302546 0.027860535
N -0.1974961 -1.0366784 0.40624404
N -1.5481906 -0.524316 0.40351185
C -0.26057637 1.1114459 -0.14293316
H 2.1807501 -0.94286776 0.13494805
H -1.1011627 -1.4044248 -0.35356247
H 0.016341746 2.1266463 -0.38645807
