11

N 1.7107311 0.48326826 -0.31356707
C -0.25119653 0.26944286 0.62388253
C 0.7785201 1.2058479 0.23042277
N 1.334029 -0.85154784 -0.21447699
N 0.48011935 -0.87620753 0.9140961
C -1.2499337 -0.007210635 -0.3278633
H -1.740336 0.8105036 -0.8492265
H -0.03684274 -1.7464161 0.93668205
H -1.8696967 -0.89630896 -0.2035694
H 0.75552154 2.2833836 0.18617484
H 0.08908463 -0.67475486 -0.98255515
