11

O -2.07342560 -0.41939328 -1.06313785
C -0.99836317 -0.19461328 -0.58713711
C 0.83457403 -1.13408802 0.84273671
N 0.87612162 0.25176895 0.23762749
C 0.33259886 -0.90355191 -0.55415157
C -0.41161187 0.99991800 0.19853094
H 0.00720628 -1.12506791 1.56509122
H 0.83436567 -1.30280599 -1.43072099
H -0.36633676 1.89740823 -0.42642698
H 1.75888702 0.69345872 0.02457671
H -0.79401617 1.23696650 1.19301157
