11

O -2.295903 -0.62311476 -0.4260678
C -1.1532196 -0.3741265 -0.16211456
C 0.11495643 -1.2119373 0.040899977
N 0.7582059 -0.049877338 0.73035264
C 0.8559509 0.9804715 -0.28257197
C -0.44353327 0.8109566 0.41383335
H -0.056953643 -2.0385098 0.7355904
H 0.657414 -1.575246 -0.837841
H 0.96009624 0.6941069 -1.3280823
H 1.4524844 1.835899 0.0212077
H -0.84949845 1.5513777 1.0947937
