10

C -0.40636208 0.45808940 -0.75323808
O -1.75584330 0.14901988 -0.58010094
C 0.48690867 0.00357764 0.12917311
O 1.79995492 0.36294227 0.14172071
N 0.19744708 -0.92749453 1.11551299
H 0.68613820 -0.74844499 1.98234002
H -0.13030774 1.12334507 -1.56751715
H 1.91821688 1.10937975 -0.46097091
H -1.99403246 -0.51439454 -1.24219433
H -0.80212025 -1.01602000 1.23527457
