11

N -0.12351983 0.12024294 -2.9673078
C 1.205429 -0.136702 1.1370903
C -0.7495189 0.042880014 -0.409172
C 0.33280128 -0.7156232 0.32670555
C -0.40116748 0.11190524 -1.8466556
O -0.9348634 1.3641006 0.033562183
H 1.2026744 0.93606377 1.3051205
H -1.6884255 -0.52858335 -0.3476427
H 0.34840226 -1.7889906 0.14711608
H -1.1552482 1.3180192 0.97281617
H 1.9634362 -0.7233126 1.6483675
