11

N 0.73569167 1.736322 2.3421764
C 0.24875766 1.321977 1.3811125
C -0.34581107 0.78004444 0.1461194
C 0.5798058 -0.1172895 -0.70002705
C -0.40038294 -1.2320219 -0.31280982
O -1.241516 -0.3018242 0.3988159
H -0.834612 1.6006544 -0.39071825
H 0.5919215 0.14499901 -1.7583027
H 1.5999072 -0.22117506 -0.32880992
H -0.93663996 -1.7123916 -1.135176
H 0.0028783423 -1.9992945 0.35761923
