11

N -0.06623374 -1.6393842 0.13220863
C 0.20510589 -0.5739508 0.9320696
O 0.7871099 -0.6248589 1.9956331
C -0.24901499 0.74412733 0.35832262
C 0.2553079 1.1943988 -0.9409822
O -1.0688223 0.69316334 -0.80488026
H -0.7211477 -1.5250022 -0.6262883
H 0.12878554 -2.5627055 0.4902354
H -0.53408724 1.4838564 1.1044136
H 0.3289992 2.2615907 -1.1449804
H 0.93399745 0.5487652 -1.4957522
