11

C -0.53279096 -1.0775713 -1.4118127
C -0.017322378 -0.24966231 -0.28703573
N 1.1599587 -0.26311165 0.24841768
C 1.0916045 0.69089335 1.2551028
C -0.14107157 1.2342857 1.2658079
O -0.87073433 0.64142084 0.27637962
H -1.4242604 -1.6354833 -1.1095264
H 0.24348891 -1.781904 -1.713332
H -0.8034063 -0.45511281 -2.2701056
H 1.9366006 0.9085858 1.8927627
H -0.6420669 1.9876592 1.8533419
