11

C 1.25618489 -0.63769596 -0.18638372
C -1.28003294 0.57888895 -1.03579916
N -1.42667670 0.73728912 -2.16925422
C 0.40561041 0.14199299 0.78448175
C -1.06534192 0.37722327 0.39712433
O 0.80320583 0.54999053 1.84685715
H -1.63440593 -0.50492479 0.71566615
H 0.74137583 -1.55058285 -0.50561253
H 1.42830076 -0.03941180 -1.08754476
H 2.21175686 -0.88689747 0.27624670
H -1.43997722 1.23412754 0.96421847
