10

N -1.5407571 -1.4214172 0.7472016
C -0.68065315 -0.64203423 0.26474953
C 0.14134511 0.33344045 1.0098134
C 0.9266106 0.96432555 0.13776089
C 0.6401092 0.4206503 -1.2151774
O 1.1076797 0.6971787 -2.276684
O -0.34152514 -0.54984313 -1.0722922
H -1.9716355 -1.9942466 0.023429165
H 0.058064185 0.45121762 2.0806096
H 1.6607623 1.7407287 0.3005893
