11

O 1.4192405 -0.21051338 -1.6022272
C 0.22444046 0.112234585 0.57478887
N -0.877349 0.050544895 -0.52119386
C 0.6744747 -0.6241431 1.6152815
C -0.338931 1.3265697 0.0060992446
C 0.72313434 -0.7324892 -0.7790228
H -1.7627058 -0.2791727 -0.15242283
H -1.0138245 1.8937958 0.63990235
H 0.20886075 1.9033657 -0.7377669
H 0.24214217 -1.6426264 1.6083854
H 0.50051737 -1.7975656 -0.6518237
