11

O 0.24729814 0.4139089 -2.0326483
C 0.43578914 0.9102769 0.82054514
N 1.3504463 -0.086070664 0.50615513
C -0.052019343 -0.44114852 0.18114178
C -0.81361914 -1.1552936 1.153074
C -0.40942276 -0.25274006 -1.277434
H -1.7455344 -1.5100805 0.661951
H 0.20704755 1.0599127 1.8691002
H 0.27885348 1.7444367 0.131367
H -1.3001376 -0.81399345 -1.6250416
H 1.8012989 0.1307917 -0.38821054
