11

O 0.95206279 0.36160732 -1.82399357
C 0.41917161 -0.51283957 -1.19357987
N 0.80612792 0.71436099 0.96288751
C 0.08307282 -0.38317202 0.27642087
C -0.49256615 1.04438348 0.59870881
C -0.60819161 -1.34290092 1.07376874
H 0.18481938 -1.49567775 -1.64999797
H -0.67551660 1.60573131 -0.32152792
H -0.90240054 -2.18653261 0.41250610
H 1.46332415 1.09363773 0.27409903
H -1.22990420 1.10140182 1.39070805
