11

O 1.7512649 -0.9160554 -1.8332226
C 0.73076826 -0.2665113 -1.9188936
N -0.032854106 0.08285104 -0.8552332
C 0.3398807 -0.32394904 0.49059913
C -0.5782887 0.25225464 1.4713943
C -1.3415984 0.72518146 2.2696574
H 0.32244614 0.10445739 -2.8775291
H -0.8755203 0.620959 -0.9967718
H 0.32954457 -1.4189873 0.56399477
H 1.3663592 0.0010633992 0.6962605
H -2.0120027 1.1387359 2.989744
