10

N 1.55534996 0.77772489 0.94221558
C 0.31149842 0.78476262 0.39098644
O -0.42019539 1.75301988 0.39003687
N 0.00710324 -0.48800896 -0.16179676
C -1.15751927 -0.58358211 -0.66100904
O -1.59049886 -1.71150942 -1.21180596
H 1.91774986 1.64082827 1.30505733
H 2.14464056 -0.03008052 0.83372393
H -0.87093314 -2.35749423 -1.13695333
H -1.89719529 0.21433930 -0.69045503
