9

N 2.1394985 -0.6592449 -0.06666743
C -1.1045117 0.464817 -0.035396006
N 0.1318706 0.46066725 -0.31222406
C 0.8939826 -0.613057 0.16616791
O -1.9166007 1.4400201 -0.44082433
H -1.6547487 -0.28484806 0.5407736
H -1.3724895 2.0715013 -0.94007736
H 0.3471582 -1.3808354 0.7401049
H 2.535841 -1.4990201 0.34814268
