9

N -0.4417071 -0.6483872 -0.3247395
C 0.42935693 0.20322266 0.102622144
N 1.7488507 -0.019810325 0.0013265377
C -1.7668684 -0.25777364 -0.15161602
O -2.7157338 -0.9230362 -0.49128744
H -1.9114707 0.73812205 0.33357036
H 2.4236035 0.6327398 0.36403686
H 2.070925 -0.88291085 -0.4049932
H 0.16304374 1.1578337 0.5710802
