9

N -0.00297830 0.49847861 -0.28035369
C -0.84012081 0.53140373 0.67012016
N 1.58632530 -0.76901817 -1.38155169
C 0.72297822 -0.68662675 -0.45661983
O -1.57944210 1.61018317 0.92412942
H -1.33154323 2.28328137 0.26871805
H 0.49508236 -1.50640994 0.24617691
H -1.06675371 -0.27074484 1.37858687
H 2.01645213 -1.69054716 -1.36920598
