9

N -0.80769366 1.8437383 -0.1281924
C -0.10964446 0.8105979 -0.35042354
N -0.2372298 -0.30956542 0.45583856
C 0.48093572 -1.4708596 0.30025992
O 0.36394194 -2.439127 1.0090386
H -0.6000725 2.5718193 -0.8024922
H 0.6294114 0.6807139 -1.1489819
H -0.9047029 -0.26319718 1.2161801
H 1.1850542 -1.4241198 -0.5512268
