9

N -0.80426186 1.8467469 -0.12762506
C -0.10924431 0.8117738 -0.35013866
N -0.23681964 -0.30910462 0.45763206
C 0.47941107 -1.471229 0.29986295
O 0.36351013 -2.439171 1.0106635
H -0.5963546 2.5731537 -0.80390984
H 0.62775576 0.6788942 -1.1497006
H -0.9054822 -0.26234606 1.2178276
H 1.1814855 -1.4287179 -0.55461174
