9

O -1.9665378 0.037233096 1.3547696
C 0.20426966 -0.41896808 -0.913353
N -0.9354143 0.07831676 -0.69815725
C 1.3178388 -0.4143518 0.10207766
C -1.3521035 0.6415076 0.5198778
O 1.220351 0.14950208 1.1646978
H 0.42098317 -0.8611054 -1.8895761
H -1.1507044 1.7280974 0.56074023
H 2.2413173 -0.94023174 -0.20107666
