11

O 0.33734202 -1.6086746 0.7095528
N -0.41819265 1.4020715 -0.48929983
C -0.1394212 0.26719669 -0.020879643
C 0.82586735 -0.81679755 -0.39642048
O 0.21775828 1.9477447 -1.594784
C -0.60569775 -0.59925455 1.1147187
H 1.8866415 -0.55901116 -0.2961731
H 0.6461369 -1.2925391 -1.3677768
H -0.4016807 -0.21647504 2.1203203
H -0.70617026 2.4223888 -0.83306336
H -1.6425833 -0.94664913 1.0538055
