9

O -0.1349763 -1.3614458 0.20544851
C 0.52943665 0.8162485 0.44965285
C 0.64734435 -0.47791368 0.95775336
O 0.9730985 1.9256594 0.7042554
C -0.7267005 -0.697396 -0.72991097
N -0.3933959 0.5774351 -0.6603088
H -1.384267 -1.1893096 -1.4295642
H -0.71190166 1.3184378 -1.2674589
H 1.2013617 -0.9117156 1.7701328
