9

O 1.0038626 -0.9458128 -1.5001976
C 0.3102618 -0.34881186 -0.52116627
C -0.9411274 -0.62260425 -0.07808583
O -1.1970016 0.2657562 0.9391058
C -0.0898288 1.0055804 1.0374728
N 0.8469348 0.6952754 0.20059967
H 1.861781 -0.50158745 -1.544678
H -1.7168821 -1.3277904 -0.32397276
H -0.07800029 1.7799946 1.790922
