9

O 1.3934321 -1.5736599 0.2943293
C 0.4304617 -0.79998475 -0.061404932
C -0.683643 -0.6198328 -0.82835925
O -1.153243 0.67757607 -0.5588725
C -0.34751624 1.2179468 0.3286633
N 0.6046081 0.38922757 0.66043454
H 1.5430168 -0.32055783 1.0356945
H -0.5439668 2.223654 0.6707452
H -1.2431496 -1.194369 -1.5412303
