9

O -1.25527958 -0.56051762 0.15509855
C -0.71985290 0.50268196 0.89099399
C -0.38033836 -0.94655008 -0.71176580
O 1.46231158 1.57839582 0.72206085
C 0.57179344 0.78850594 0.44728409
N 0.71284547 -0.21487439 -0.60817735
H 1.55135699 -0.30078634 -1.16376688
H -0.59035455 -1.76015800 -1.38839176
H -1.35248207 0.91330256 1.65666413
