12

O -0.6653715 -1.4507546 0.8786828
C -0.060593825 -0.22272304 1.1988896
C 0.44538754 0.45601153 -0.07443109
O 1.3292354 -0.42264712 -0.72072434
C -0.7093889 0.774505 -0.9989417
O -0.72080964 0.37832007 -2.1387084
H -0.031246178 -1.9118938 0.31173116
H 0.7831999 -0.34768513 1.8915281
H -0.8165537 0.39839506 1.6916349
H 0.9410319 1.405134 0.18984568
H 1.0288651 -0.4618097 -1.6421707
H -1.523756 1.4051477 -0.5873358
