12

O 0.74469465 0.9933901 -0.30124408
C -0.95981663 -0.63232714 -0.07461662
C 0.89156246 -0.057419546 1.0926467
O -0.4090578 -0.41643322 1.2250229
C -0.52193195 0.6230262 -0.845292
O 1.7576379 -0.77453303 0.45450228
H -0.43628407 0.43815628 -1.9207064
H 1.5334508 0.080727115 -0.4344969
H -0.5406049 -1.5451967 -0.5049472
H -2.0416093 -0.7154801 0.0301183
H 1.1935352 0.5517005 1.951013
H -1.2115765 1.4543893 -0.672
