11

C 1.1068145 1.2304606 -0.32749087
C 0.23066585 0.44551903 1.1248074
C -0.0036322451 -0.017959105 -0.068321764
N -1.5845611 -1.849294 0.3723617
N -0.24582677 -0.788128 -1.0572505
N -1.015533 -1.9035877 -0.73097354
H 2.0346384 0.7203127 -0.5714914
H 0.61604804 1.6618752 -1.2060748
H 1.3075999 2.0343297 0.3828412
H -0.35447362 1.203629 1.6336918
H -2.0917397 -2.7371569 0.4479011
