12

C -0.87579282 0.45391853 1.48541774
C 0.08505896 -0.38500490 -0.79359217
C 0.05620495 0.58052274 0.30901864
O -0.54668863 0.86679773 -0.94761770
N 1.29394633 -0.55791340 -1.53504715
H 1.86605463 -1.27804211 -1.10088882
H 0.98507140 1.13216146 0.47612144
H -0.35076906 0.03011511 2.34739670
H -1.72449631 -0.19236192 1.23972220
H 1.09715527 -0.85509667 -2.48625954
H -0.61504320 -1.22871096 -0.76745950
H -1.27070196 1.43361429 1.77318814
