12

C 1.4030067 -0.29277855 0.881173
C 0.3369725 -0.5047594 -0.18705392
C -0.59094816 0.695271 -0.31718823
O -0.22762781 1.8356197 -0.103117526
N -1.8675371 0.39712948 -0.70491976
H 2.1173267 -1.1209797 0.8869071
H 1.9418491 0.64008373 0.6954661
H 0.95381767 -0.22358587 1.8771869
H -0.2451807 -1.4133688 0.01387088
H 0.81007487 -0.64684963 -1.1672597
H -2.1443293 -0.53188056 -0.9645297
H -2.4874249 1.1660985 -0.91053516
