9

O -1.3252671 0.6720423 0.8390743
C 0.28219146 -0.84273016 -0.10314033
C 0.85389525 1.5926851 -0.046556186
C 0.8828567 -1.8784435 -0.014216108
C -0.50921595 0.37306604 -0.20517284
N 0.31700915 1.8637075 -1.0788226
H -0.8063627 0.6488572 1.6534995
H 1.4195702 -2.7992263 0.064654924
H -1.1146773 0.37004164 -1.1093208
