9

O 0.09232781 -1.0511174 1.703821
C -0.84233195 0.48926798 -1.0752064
C -0.8540282 -0.58687913 -0.42809203
C 0.18244517 -1.0094136 0.41467068
C 1.3190991 1.1390374 -0.046640106
N 0.9289571 1.8790632 -0.88606715
H -1.1675596 1.2819227 -1.7165778
H -0.7385629 -0.65196705 2.003019
H 1.0796534 -1.4899143 0.031072954
