9

O -1.3213152 -0.6615009 0.88138485
C -0.59870523 0.29815164 0.15390892
C 0.8608221 0.19514357 0.34020486
C 2.0439572 0.07722384 0.5101038
C -0.92964375 0.23450063 -1.2957587
N -1.2037498 0.15163194 -2.4146304
H -1.00321 -1.5390924 0.6359538
H -0.9464055 1.2671499 0.528617
H 3.09825 -0.023208229 0.660216
