10

C 0.017715879 0.17365135 -0.1009076
C 0.94598484 -0.47045505 0.7972341
C -1.2601166 -0.45763916 -0.32123715
C 1.732383 -0.9934781 1.5378826
N 0.24312547 1.2761391 -0.7312152
N -1.6796051 1.2926936 -1.7343724
N -1.9205476 0.3030229 -1.1804018
H -1.6612014 -1.3663566 0.09491915
H 1.1496922 1.701995 -0.5577248
H 2.432569 -1.4595729 2.1958232
