10

C 0.3847249 2.0540278 1.5000383
C 0.18285592 1.0917221 0.80486846
C -0.05821301 -0.04352237 -0.020595327
C -1.2052156 -0.72060233 -0.37373638
N -0.8683535 -1.7418594 -1.2014635
N 0.41525036 -1.7398826 -1.3815894
N 0.91536236 -0.7254155 -0.6776203
H 0.5525754 2.909389 2.1211314
H -2.2276404 -0.53196144 -0.08461469
H 1.9086533 -0.55189526 -0.6864184
