12

C 0.39883974 -0.15566133 -0.6375924
C -0.65985864 0.8713504 1.2757726
O 1.0578257 0.91008055 -0.9358065
N -1.5604867 0.7758696 2.1591425
C 0.85338664 -1.2294997 -1.4683311
N -0.4918642 -0.16814065 0.36159867
H -1.5625179 1.605203 2.747593
H 0.8016537 -2.2534316 -1.0972378
H -1.0762149 -0.9837607 0.49364004
H 0.50452965 -1.1167659 -2.4967027
H 0.038221415 1.6967123 1.1161438
H 1.6964856 0.048043594 -1.5182198
