12

C 0.55798006 -0.6495425 -1.8489325
C -0.08192669 -0.74086946 -0.4797965
O -0.61089885 -1.7422714 -0.051896855
N 0.012508793 0.421693 0.2701545
C -0.47248748 0.54178417 1.5634301
N -0.34491476 1.6438549 2.179306
H 0.1345455 -1.4296099 -2.4811366
H 0.40110564 0.32966122 -2.3137429
H 1.6370387 -0.820834 -1.7585477
H 0.4496155 1.2461156 -0.11774772
H -0.9366066 -0.37533197 1.9287236
H -0.7459598 1.5753503 3.110186
