12

C 0.55977535 -0.64720654 -1.8491206
C -0.081548356 -0.74029315 -0.4807912
O -0.607758 -1.7436277 -0.05154831
N 0.009639207 0.42102537 0.27006975
C -0.4744489 0.53913254 1.5639081
N -0.34475052 1.6411421 2.1790373
H 0.1372875 -1.4261961 -2.485509
H 0.404501 0.33314404 -2.3112545
H 1.638113 -0.8196476 -1.7590133
H 0.44476756 1.2481776 -0.116813384
H -0.93872696 -0.3770684 1.9319736
H -0.7468511 1.5714178 3.1090608
