10

O -0.39464247 -1.2008241 1.5220155
C 0.68010664 0.3182048 -1.3559425
N -0.9397283 0.57952213 0.01322265
C 1.1283089 -0.50932586 -0.31658316
C 0.1141159 -0.18884136 0.72489506
N -0.50979203 0.937802 -1.144315
H -0.11390532 -2.0332139 1.1193312
H 1.1427639 0.46413475 -2.3252504
H -1.7306433 1.0586475 0.4202843
H 0.62341595 0.57389396 1.342342
