10

O -0.1943871 -1.5811416 -0.39053044
C 1.0123914 -0.6849624 0.32702687
N -0.7542384 0.8168348 0.4470758
C 1.1244296 0.54143196 -0.5291972
C -0.3279075 -0.40869546 0.83473676
N 0.14793967 1.3871349 -0.44734293
H -0.46235207 -1.1130282 -1.1938231
H -0.83872926 -0.9404038 1.6310863
H -1.697343 1.173126 0.44633093
H 1.9901967 0.8097036 -1.125363
