10

O 1.3162194 -0.9153263 0.48916358
C 0.4058995 0.13645548 0.3641523
C 0.0070106913 0.4461874 -1.0784484
O -1.3897266 0.18210156 -0.7607039
C -1.0835558 -0.20501418 0.5080558
O -1.8060173 -0.65527415 1.3406036
H 1.3302386 -1.2013633 1.4111618
H 0.68704367 1.0228505 0.9503888
H 0.38842157 -0.2809881 -1.7974035
H 0.14446612 1.4703712 -1.4269699
