10

O -0.52658165 -1.0784928 1.7000233
C 0.10213337 0.84799826 0.01680026
C -0.038888767 -0.47745845 0.6050319
O 1.2139027 0.13980995 0.6362319
C -0.114096224 0.13973455 -1.3098121
O -0.25637794 -1.1316397 -0.60929686
H 0.73131627 0.11885351 -2.0014222
H 0.036432467 -0.8281937 2.443609
H -1.0472099 0.40603107 -1.811377
H -0.10063049 1.8633572 0.33021185
