10

O 0.94721667 -0.95283008 0.30461949
C 0.69846330 0.47241050 0.13708347
C -0.03884087 0.58140674 -1.18684835
O -1.04204409 -0.36251917 -0.70732218
C -0.34971972 -0.47208468 0.50037454
O -1.06628965 -0.86636017 1.56299732
H -0.46662640 -1.32928634 2.16187759
H 1.33238674 1.17167027 0.66573329
H 0.47564465 0.19800497 -2.07103757
H -0.49019078 1.55958806 -1.36747742
