11

N 0.38248010 -0.88919178 0.99005549
C 0.12649925 1.02816703 -0.28117699
C -0.88254777 -0.58557201 1.21555156
C -1.10523349 0.08312324 -0.17621282
C 0.73298187 -0.38297396 -0.37641456
O -0.41144716 -0.81605935 -1.09568611
H 1.01094240 -1.33307266 1.64349526
H -2.11020525 0.35199291 -0.49063364
H 0.39836777 1.64993565 0.57314831
H 0.15532663 1.57217641 -1.22559881
H 1.70283567 -0.67852528 -0.77652751
