11

N 1.4366487 -0.580221 0.902773
C -1.1605052 0.6908805 -0.49324194
O -1.5854561 -0.35043234 0.4263031
C -0.097030476 -0.22479181 -0.98772395
C 1.1508539 0.0067099845 -0.28007162
O 1.8946824 0.7403136 -0.9271555
H -0.8684333 1.5523449 0.11275244
H 0.8118073 -1.2553315 1.3068436
H 2.3792562 -0.50167155 1.2551439
H -2.0146344 -1.0349711 -0.11016577
H -1.9471892 0.95717037 -1.2054573
