11

N 1.73073579 0.97593373 0.25731129
C 1.37456760 0.00595858 0.96967921
O -0.28980772 -0.13714252 -1.37741878
C -0.56689026 -0.83109147 -0.18926672
C -1.33508951 0.36062721 -0.50993666
O 0.38760265 -0.92263082 0.82131064
H 1.90257563 -0.21041541 1.89720804
H -1.00613768 -1.81838018 -0.31819809
H -2.33751207 0.27964434 -0.92776548
H 1.23989563 1.01224592 -0.63480422
H -1.09993980 1.28525060 0.01188060
