11

N 2.258871 -0.6427926 0.72821057
C 1.106859 -0.31782386 0.34283927
O 0.51094645 -0.9007662 -0.72478837
C -0.8544947 -0.4981479 -0.7571907
C -0.83599555 0.80431134 0.035904467
O 0.2870662 0.6210637 0.89509165
H 2.550128 -0.06455895 1.5092124
H -1.4709488 -1.2656128 -0.2771416
H -1.1601148 -0.37356785 -1.7975458
H -0.66718334 1.6765273 -0.6034155
H -1.7251332 0.9613678 0.64882344
