11

N 1.4164634 0.6614647 1.2530754
C -1.0311785 0.6371879 -0.8385785
O 0.07355743 -1.1808293 0.5256102
C 0.8588891 -0.45658672 1.3724385
C -0.39138168 -0.6583461 -0.6791909
O 0.30359253 0.37293327 -1.3299742
H 0.9760072 -1.0272568 2.292514
H -0.6817672 -1.495315 -1.3112193
H -1.0829079 1.2994957 0.022345128
H 1.3293698 1.0482488 0.3144991
H -1.7706442 0.7990036 -1.6215193
