10

O -0.40455660 -0.99205484 -0.60030960
C 1.00870143 -0.99908605 -0.81084612
C -0.22251093 0.26628510 -0.03903612
O 1.14992251 0.31069010 -0.26697022
C -0.96554600 0.89042801 1.03984622
O -1.02822548 1.31404064 -0.35714323
H 1.28437251 -1.05404686 -1.86764006
H -1.87653291 0.42788478 1.41110898
H 1.51890792 -1.75745015 -0.20915595
H -0.46453232 1.59330959 1.70014626
