10

O 0.33730203 1.2831298 -1.0729897
C 0.030710764 -1.634494 -0.024683524
C -0.111555696 1.6498495 0.2682781
O -0.9250414 -0.6649883 -0.45858425
C 0.054777585 0.28468978 -0.19466333
O 1.0237851 -0.63588 0.19402039
H 0.30621377 -2.345459 -0.80855566
H 0.6557947 2.1028817 0.89036214
H -1.1029022 2.0943136 0.30519977
H -0.26908457 -2.1340432 0.9016162
