10

O 2.0009158 -0.8803018 -1.0103838
C 0.26219305 -0.5252809 0.7770887
C 1.0213195 -0.356885 -0.55116516
C -1.0340668 0.24427933 0.12582193
O -1.1898049 1.4386333 0.55256456
C -0.023030873 0.51767945 -1.0059304
H -1.8827205 -0.4368808 -0.05980713
H 0.6247598 0.082993954 1.6062015
H 0.083121404 1.4919659 -1.478133
H 0.13731334 -1.5762035 1.0437429
