10

O 1.87259504 0.35387710 1.41217232
C -0.19234658 -0.97697746 0.69117521
C -0.13281680 0.62945237 -1.35602970
C -0.34049963 0.47051129 0.11609902
O -0.67081992 1.47729734 -2.02084816
C 0.82157946 0.04137767 0.93952072
H 0.02725733 -1.77602425 -0.01611676
H 0.58433205 -0.09681008 -1.80497436
H -1.08817097 1.12784892 0.55299366
H -0.88110982 -1.25055305 1.48600757
