10

O -0.05921922 0.80115706 2.231751
C -0.044698548 0.1355315 1.2405795
C 0.499843 -0.989767 0.4896158
C -0.097494446 0.9016157 -1.195931
O -0.78888285 1.3036746 -2.0962658
C -0.5744868 -0.041237913 -0.13807338
H 0.96242106 1.2288561 -1.0827773
H -1.5840689 -0.42054996 -0.2753631
H 0.17096469 -1.9985247 0.7246559
H 1.5156218 -0.92075527 0.101808645
