11

N -2.0101013 0.6798086 -0.038148783
C -0.33420822 -1.1083044 0.2802979
C 1.4216661 0.4383405 -0.22818919
N 0.31098497 1.0683655 -0.39434537
C -0.70458204 0.18631002 -0.040015504
N 1.1938851 -0.8561202 0.25677165
H -2.1549819 1.387212 -0.74590635
H 1.8326072 -1.6325899 0.12477021
H -2.6969337 -0.05762111 -0.097356305
H 2.4161537 0.8324325 -0.39574212
H 0.7255105 -0.93783367 1.277864
