12

N -0.9279205 2.0801816 1.7896979
C -0.8599849 1.2753048 0.964022
C -0.7623189 0.22302043 -0.065656535
C 0.3955468 0.4746662 -1.0843158
N 1.4870385 -0.41269752 -0.6819879
C 1.0077418 -1.1953565 0.19783385
N -0.34350097 -1.0535872 0.5097345
H -1.7321683 0.13459471 -0.5621119
H 0.071073234 0.21662633 -2.0971103
H 0.72607994 1.5157218 -1.0901183
H 1.5782856 -1.991269 0.6682944
H -0.63987225 -1.2672058 1.4517182
