11

N -0.6320346 -0.7121181 -1.9396181
C -0.3247385 -0.27740687 -0.79836726
C 0.7081247 -0.8750951 0.13336188
O 0.44297978 -0.2437943 1.3707306
C -0.12975594 0.9890908 1.0485345
O -0.8452048 0.8116713 -0.17139272
H -1.336414 -0.1265245 -2.3798466
H 0.5900183 -1.9547569 0.23930682
H 1.7201785 -0.65267324 -0.23186803
H -0.8288799 1.2781252 1.8328632
H 0.6357263 1.7634816 0.8962956
