11

N 1.4013455 1.2399085 -0.006890762
C -0.88927794 -0.7406637 1.0168586
C 0.44425395 0.33534434 -0.07515307
O -1.1298015 0.4933083 0.4147305
C 0.09815384 0.27711454 -1.4491189
O 0.488853 -0.8682898 0.6429162
H 2.0853946 0.9808137 0.7082675
H -1.4960681 -1.5573461 0.6043139
H 0.086834244 -0.660723 -2.0037992
H -0.9843471 -0.70985925 2.109208
H -0.10534036 1.2103925 -1.9613327
