11

N -1.340991 0.021626838 0.861433
C -0.1339788 -0.070929006 0.16297576
C 1.6231716 0.6864387 -0.105489165
O 0.34056854 0.93840677 -0.68818086
C -1.1868681 -1.0198213 -0.1958282
O 1.1059104 -0.30947542 0.7647974
H 2.3374228 0.29373327 -0.83537984
H -1.6797189 -0.87141114 -1.1559486
H 2.0167136 1.5533553 0.43008822
H -1.905908 0.81545204 0.57907677
H -1.1763222 -2.0373762 0.18245548
