10

O -1.8687844 -0.033868846 0.10797757
C 0.44103026 0.10730326 -1.094505
C 1.313367 0.5079545 -0.17229274
C -0.51961786 -0.1817711 0.041224655
N 0.41853526 0.3972091 0.9923919
N 0.09626757 -1.0925999 0.9651411
H 2.3596797 0.7802923 -0.10914323
H -2.1154666 0.7971109 -0.31092688
H 0.43905488 -0.07607237 -2.1578753
H -0.56406546 -1.2055577 1.7380079
