11

O -0.010816028 1.1940842 0.443944
C 0.034362294 -0.8669842 0.763578
O 1.3318454 0.10843338 -1.250655
C 0.010926169 0.049033005 -1.8238121
C -0.27352098 0.3717402 1.6023507
C 0.25547034 0.09451383 -0.38903806
O 0.08094236 -2.0480335 0.9232987
H -1.3109578 0.455259 1.9450566
H -0.30921495 0.9607444 -2.3242948
H -0.22530308 -0.89160156 -2.3177881
H 0.41626632 0.5728112 2.4273598
