11

O 0.13855551 0.7712049 1.1850004
C 0.48679402 0.91647625 -0.27932376
O 1.0363454 1.9115914 -0.68216944
C 0.8925152 -0.57064164 -0.87987614
C -0.817173 0.031910554 -0.38722885
C -1.0741013 0.018282507 1.0835985
O -0.47963718 -1.0433648 -1.087891
H 1.3637822 -1.1730156 -0.10485861
H -1.0188844 -0.9737709 1.5433886
H 1.4092801 -0.47292763 -1.8303229
H -1.9374765 0.5842551 1.4396832
