11

N -0.5974923 1.9769447 -0.46720666
C -0.14801757 0.86418587 -0.065904364
C 0.8838845 0.15107818 -0.81630814
O 0.87431073 -1.5602303 0.67715347
C -0.35066965 -1.1766347 0.77512014
O -0.6259233 0.1929752 1.0294603
H -1.3575869 2.2849824 0.13494533
H 0.91898704 0.3721018 -1.8825921
H 1.8441557 -0.021185482 -0.33918843
H -0.39995962 -1.2703221 -0.38654914
H -1.0416888 -1.8138956 1.3410693
