11

C -1.4728882 0.794 -0.44901928
N -0.47941914 -0.08740582 0.12691452
C 0.8405502 0.026313167 -0.12434536
O 1.3860676 0.84421664 -0.8411252
C 1.6755972 -1.0229799 0.60757947
O 1.193341 -1.8579578 1.3281074
H -0.9513707 1.5161443 -1.0800928
H -2.1838496 0.22909112 -1.060322
H -2.0168412 1.3287207 0.33505946
H -0.75059134 -0.8353243 0.74964595
H 2.759404 -0.93481827 0.40759793
