11

C 0.22884244 -0.39602977 -0.22773086
C -0.9021548 -0.23634815 -1.2125136
O 1.4041408 0.34065118 1.7437571
C 0.25977468 0.5313234 0.97491366
O 1.1128576 -1.2151653 -0.36253232
H -1.8334243 0.05829904 -0.7172395
H -0.6374261 0.56007946 -1.9192308
H 0.19293524 1.5701635 0.61445946
H 1.877556 -0.39425415 1.3211662
H -0.6566473 0.34174368 1.5593046
H -1.0464543 -1.1604629 -1.7743542
