13

C 0.020848557 -1.157036 0.46268067
C 0.15846466 0.21305753 -0.16695596
N -0.13803364 1.2182096 0.5534488
O -0.6040029 1.0768654 1.8720917
C 0.6169044 0.4069979 -1.5725362
O -1.2716092 -1.3725421 0.97254705
H -0.56390196 2.097271 1.1459686
H 0.20909502 -1.9179572 -0.30055308
H 0.7917206 -1.2507545 1.243466
H -1.418061 -0.644233 1.5927916
H 1.5970118 -0.06223233 -1.7251441
H -0.08767271 -0.07609187 -2.2588842
H 0.68923646 1.4684452 -1.8189206
