13

C -0.5473907 0.024933206 1.70649
C 0.023599751 0.16959171 0.32929415
N 1.1350573 0.78836596 0.2322247
O 1.5600795 0.8756384 -1.1068119
C -0.7173242 -0.41364476 -0.8573963
O 0.06252044 -1.3133008 -1.6070669
H 0.083563946 0.5300907 2.4400666
H -1.5564865 0.4509661 1.7486483
H -0.63256717 -1.034423 1.9698737
H 2.4176645 1.3054577 -1.0267068
H -1.1010526 0.4149589 -1.4724846
H -1.581473 -0.98054856 -0.49339253
H 0.8538088 -0.81808543 -1.8627383
