12

N -0.39932908 1.24863415 0.89102029
C -0.12314164 -0.83895708 0.42114479
C -0.52582208 0.13407503 1.50893270
N -0.56467891 1.01136986 -1.52365929
C 0.01036492 0.52616556 -0.34955857
N 1.49240900 0.30544158 -0.43392061
C 1.37227486 -0.81424677 0.16953176
H -0.82504285 0.00788871 2.54675309
H -0.73913603 -1.69941482 0.15412361
H -1.56709682 1.13927124 -1.46118811
H -0.30952514 0.47846419 -2.34580679
H 2.17872406 -1.49869185 0.42262692
