12

N -1.1940144 0.8227404 0.6714545
C 0.39353618 0.44870228 -0.8699804
C -0.2698546 -0.29782122 0.6348439
N -0.78179675 -1.5549773 0.72148746
C -0.77045274 1.2725111 -0.45659834
N 1.0277095 -0.036713324 1.2325815
C 1.4959154 0.40494412 0.11598205
H 0.55019754 0.17417657 -1.9104692
H -1.6556865 -1.7017574 0.23811427
H 2.5404234 0.6688569 -0.040125716
H -1.2202921 2.1099296 -0.9875983
H -0.1156852 -2.3105917 0.6503084
