11

O -1.04415574 -0.68707871 -0.18130065
C -0.91806691 0.70400369 -0.45864834
N 0.12900412 -2.23010318 1.02709273
C 0.05400210 -1.09298502 0.49469196
C 0.58779554 0.92508127 -0.38603196
O 1.00000974 -0.11059933 0.50327133
H -1.45667535 1.27412304 0.30654402
H 1.04243065 -2.36064041 1.45207811
H -1.34544644 0.90496849 -1.44235557
H 1.07806220 0.78483705 -1.35539440
H 0.87304061 1.88839317 0.04005272
