9

C 0.6623688 0.33531424 -1.1840688
C -0.9220143 -0.35709542 0.53089106
C -2.005823 -0.7501824 0.87323153
C 0.3676988 0.11192232 0.101316914
O 1.2278575 0.29264227 1.144174
H -0.07629502 0.16327341 -1.9566206
H 1.6441339 0.69187415 -1.4849622
H -2.9684565 -1.0995399 1.1741195
H 2.0705297 0.61179113 0.8019188
