10

O 1.6630679 -0.12938409 -1.4497231
C 1.1603192 0.7890787 -0.8442242
N 0.280471 0.6458799 0.19103667
C -0.21336159 -0.65951794 0.5745779
C -1.648064 -0.81215626 0.28277507
N -2.7802427 -0.9111289 0.077654734
H 1.3820345 1.8500638 -1.0578814
H -0.15182818 1.4691398 0.58366597
H 0.35777912 -1.3954303 0.0024542543
H -0.050175007 -0.84654474 1.639664
