10

O 1.0360312 1.0725067 0.049834464
C -0.10287164 -1.4015294 -0.6560833
N -0.20416827 -0.81301343 0.5221616
C 0.38256285 0.28737453 1.0295024
C 0.27621257 1.9202961 -0.5873333
N -0.3785179 2.6979594 -1.1463231
H -0.59121907 -2.3558142 -0.7874022
H 0.48698154 -0.94298714 -1.4377519
H -0.1396575 0.8365657 1.803358
H -0.76535386 -1.3013577 1.2100377
