11

C 1.3809813 0.0082147885 0.021587327
N 0.24028985 -0.6257937 -0.63039464
C -0.99770945 -0.501765 0.11016526
C -1.4280999 0.90228546 0.33759964
N -1.7103997 2.0140262 0.470715
H 1.2468971 1.0842376 0.20897382
H 2.2670207 -0.13358076 -0.6037411
H 1.5658901 -0.48672798 0.98131454
H 0.11455197 -0.24483652 -1.561529
H -1.7962924 -1.0287418 -0.42040703
H -0.8831294 -0.98731804 1.0857161
