11

C -0.02135365 -0.00102630 0.44357574
N 1.36821128 -0.36757434 0.31924224
C -1.56944065 -2.09715837 0.14229058
C -0.39526275 1.06972965 -0.57352613
N -0.90834763 -1.13890030 0.29504619
H 0.24012003 1.94600800 -0.41979222
H 1.54111441 -0.75913439 -0.60298501
H 1.60766121 -1.08463756 0.99464754
H -0.24164515 0.69654510 -1.59232331
H -1.44426184 1.35794834 -0.46466116
H -0.17679509 0.37820043 1.45848545
