11

O 0.9835301 -0.40815398 0.52207553
C 0.2875875 0.56009614 1.3034796
C -0.9706539 0.25484344 -0.52440035
O -1.0355 0.5685187 0.8535764
C 0.284901 -0.58128846 -0.63393456
N 0.6083972 -1.2982706 -1.614377
H -0.8822272 1.159002 -1.1435497
H 0.7696808 1.5392963 1.1613076
H 0.30898702 0.258549 2.3505356
H 1.5065401 -1.7493768 -1.4581667
H -1.8612424 -0.3032155 -0.8165462
