11

O -1.1666111 0.07722071 -0.4921625
C 0.9588427 -0.5102411 0.51095337
C -0.44387004 0.33724543 -1.5609998
O 1.3337997 -0.63457286 -0.8215657
C -0.40385628 0.1616993 0.68365484
N -0.854429 0.6696621 1.7390267
H -1.8056041 1.0144125 1.6217295
H 0.8774155 -1.4960613 0.9929547
H -0.9859038 -0.054927066 -2.434121
H 1.6657708 0.09184971 1.0999604
H 0.8244454 0.34371254 -1.3394307
