9

O -1.7602308 0.455678 -0.81143236
C -0.55409473 0.15949166 -0.3194616
N 0.5992033 0.16779083 -0.9428105
N -0.41050088 -0.20021874 0.9641125
C 1.4531236 -0.2119123 0.052123655
N 0.9034772 -0.44690055 1.2212807
H -1.1106324 -0.297501 1.681134
H -1.6385425 0.6900864 -1.7431879
H 2.518197 -0.31651425 -0.10175842
