10

O 1.0256407 -0.05105595 0.9439293
C 0.6766925 0.4946839 -0.18488407
C -0.36373764 -0.5889823 1.0926827
O 1.5372087 0.9525415 -1.0224655
C -0.73448074 0.037166968 -0.33103353
O -0.53916055 -0.7271793 -1.3934054
H -0.8065453 -0.17111678 1.9965587
H -1.5663844 0.7656001 -0.283136
H 1.0801991 0.9641884 -1.8872092
H -0.30943242 -1.6758465 1.0689632
