11

N 1.3491796 0.5686109 1.8376926
C 0.64277124 0.2669438 0.8351997
C -0.76664823 -0.17807287 0.8549397
C -1.1590798 -0.39777312 -0.3964182
C -0.013903779 -0.10711616 -1.3239745
O 1.054909 0.29716885 -0.47025272
H 2.2862308 0.8464165 1.55017
H -1.3267262 -0.28480062 1.7746115
H -2.1294103 -0.72936225 -0.73968
H -0.23709221 0.70418465 -2.0258703
H 0.29977012 -0.98619974 -1.8964174
