11

N 2.25771149 1.43180363 0.72712682
C 1.23834631 0.82305440 0.35417567
C -1.45107089 -1.11994196 -0.28019080
C -0.31951086 -0.18795989 -0.12069132
C 0.18824902 0.92405606 -0.66730277
O 0.63767074 -0.36837838 0.88663003
H 2.70183859 0.97915943 1.52506728
H -2.05109607 -1.13978264 0.63438612
H -2.07835464 -0.80690543 -1.11748663
H -0.04596434 1.59772542 -1.47631355
H -1.07781912 -2.13283072 -0.46540046
