9

O 1.7455322 0.5380873 -1.6413798
C 0.8896825 0.35282835 -0.8193871
N 0.26507634 -0.8130387 -0.44371775
C -0.6728588 -0.5556964 0.5565104
C -0.61418945 0.7588917 0.78406155
O 0.32585087 1.3349916 -0.037497878
H 0.48472401 -1.7015369 -0.85932523
H -1.2810252 -1.3258039 1.0010319
H -1.1427926 1.4112769 1.459704
