9

O 1.30651896 0.27051965 -1.79999461
C 0.62616447 0.30250369 -0.81858427
N -0.02694506 -0.90949043 -0.19765959
C -0.81306223 -0.47977499 1.05580651
C -0.55733400 0.82492670 1.01742710
O 0.28562141 1.31453864 -0.07085951
H 0.68702905 -1.60553622 0.03021007
H -0.64745330 -1.35326802 -0.87902024
H -0.86053942 1.63558092 1.66267463
