10

N -1.3578173 0.34870234 -0.13952841
C 0.41308737 -1.2624482 -1.3847743
O 0.7705141 -0.51742846 -0.29706633
N 0.46021146 1.0412353 1.254149
C -0.1616251 0.31601316 0.26843745
O 1.1942995 -2.0081038 -1.8898368
H -1.9175019 1.022 0.3697393
H -0.6205503 -1.088664 -1.7116156
H -0.12973788 1.4594213 1.9549977
H 1.3491201 0.6892724 1.575498
