10

N 0.76890892 -0.40284549 1.45442427
C 0.05849704 0.14635132 0.41617914
O 0.20806417 -0.66843236 -0.67792331
N -0.62076033 1.21134030 0.36337395
C -0.31827854 -0.26814033 -1.87318335
O -0.21965764 -0.95999979 -2.83909598
H 0.51963992 -0.10871331 2.38472523
H 1.03562879 -1.37013537 1.35189410
H -0.80703631 0.71391910 -1.82726892
H -0.62500626 1.70665571 1.24687540
