10

N 0.8248989 -1.5088131 -0.45290783
C -0.20395817 -0.64993095 -0.36184534
O -1.3359865 -0.81728554 -0.7802461
C 0.20137604 0.6455748 0.36296874
O 1.3320147 0.8154013 0.7832022
N -0.82418114 1.5083644 0.45349994
H 1.7140335 -1.2313911 -0.06085645
H 0.7062495 -2.3953853 -0.90990233
H -0.70323336 2.398348 0.90764225
H -1.7112136 1.2351167 0.058445
