10

O 1.2427185 0.5126515 -1.75178
C 0.47205618 0.084464416 -0.7362295
N -0.06354773 -1.0924495 -0.60734797
C -0.7503369 -1.0238416 0.5919087
C -0.61392266 0.2017219 1.1650956
N 0.19049618 0.92285603 0.2865475
H 1.3081467 -0.23639138 -2.3621323
H -1.3036822 -1.8749028 0.96313244
H -0.9906037 0.6318378 2.0793157
H 0.50867575 1.8740535 0.3714898
