10

O 0.60496277 1.4770198 1.5017474
C 0.14005674 0.6276394 0.5588709
N 0.7669448 0.5878781 -0.7063385
C 0.30037075 -0.57965255 -1.2180355
C -0.49964035 -1.2101012 -0.26672807
N -0.601705 -0.46430394 0.8403265
H -0.31683287 1.3024224 -0.42385986
H -1.0259248 -2.151864 -0.3600196
H 0.50463337 -0.85700876 -2.2421644
H 0.12713449 1.2679709 2.3162012
