10

O -0.717893 -0.53460294 -2.311955
C 0.2596801 0.822091 -0.3931159
C -0.5608072 -0.5026448 -1.147154
N 0.96348137 -0.8146604 0.8344835
N 1.157271 -0.269007 -0.340088
C 0.10369962 -0.003998416 1.5103446
N -0.33421424 1.0355033 0.81628543
H -0.1880164 -0.22373948 2.5285642
H 0.35254923 1.6029332 -1.1405896
H -1.0357504 -1.1118747 -0.35677537
