12

O 1.0431074 1.0986919 -1.0106274
C 0.6024608 1.0158176 0.32077697
C -0.4463946 -0.088126026 0.4470118
O -1.4905581 0.187228 -0.44734475
C 0.1568784 -1.4365829 0.11064377
O -0.32760096 -2.1429071 -0.73972434
H 0.23573662 1.1368632 -1.545395
H 0.16172443 1.9590863 0.6729704
H 1.4744548 0.79192924 0.9447617
H -0.8060452 -0.1353238 1.4892633
H -1.6426021 -0.63656133 -0.94162893
H 1.0388385 -1.7501152 0.6992921
