10

O 1.85058336 -1.10069187 -1.06139189
C 0.67560512 0.89608431 -0.80481257
C 0.97623555 -0.53036597 -0.44991244
O -0.20607611 0.90228639 -1.78117997
C -0.65057061 -0.35013619 1.25937372
O 0.41518267 -1.07432648 0.63609182
H -0.89130085 -0.90613804 2.16613234
H -0.33255555 0.66198314 1.52006104
H -1.52897252 -0.31461756 0.60595517
H -0.30813086 1.81592231 -2.09031732
