10

O -0.22726786 -1.3956618 -0.6198394
C 0.7161698 -0.98977566 0.3223371
C -0.57197195 0.6537036 0.25349024
O -0.021915445 1.8491534 0.058058154
C -0.7908916 -0.18071939 -0.93861616
O -1.3766465 0.068046674 -1.9539745
H 1.6264678 -0.56386715 -0.09354554
H -0.014433391 -0.11692544 1.0599962
H -0.21747997 2.4178345 0.814298
H 0.877969 -1.7417889 1.0977961
