10

O -1.346344 -1.3406621 1.0060542
C -0.5540723 0.44897112 -0.52816975
C -0.4113988 -0.6031267 0.37906578
C 0.749998 0.86450493 -0.7729021
N 1.639813 0.07289879 -0.16066496
N 0.8717228 -0.8962385 0.6008147
H -2.2188752 -1.0247976 0.7428872
H 1.0941877 1.6865895 -1.3870908
H -1.4706427 0.846632 -0.9449152
H 1.645611 -0.054771565 1.064921
