10

O -0.79726475 -1.7330846 -0.74780035
C -0.2991722 -0.58686835 -0.23660678
C 0.8645344 0.1240678 -0.4204251
C 0.71079993 1.2352785 0.44468093
N -0.4340007 1.2139639 1.0987494
N -1.0403639 0.08780262 0.6668035
H -0.15651496 -2.104398 -1.3659143
H 1.6922364 -0.116467044 -1.0718753
H 1.4049946 2.0492868 0.6080724
H -1.945249 -0.16958156 1.0243157
