10

O -0.93560361 -1.90403259 -0.77504554
C -0.27517151 -0.79010556 -0.38666937
C 0.37148068 1.09127378 0.54215509
C -0.67932262 0.20178695 0.54127655
N 1.28216343 0.61191893 -0.32701899
N 0.90676535 -0.54477237 -0.91071223
H -1.78155084 -1.93595378 -0.31310474
H 2.17370407 1.00742466 -0.57433787
H 0.53154097 2.00950380 1.08845609
H -1.59400611 0.25295624 1.11500112
