11

N 1.3668723 -0.671012 2.5923862
C 0.66111296 -0.6756484 1.6798544
C -0.24259187 -0.6533754 0.51477236
C -0.53220636 0.7428621 -0.07424442
C 0.24201931 0.2228153 -1.2915486
O 0.40302038 -1.0768889 -0.6861641
H -1.1207962 -1.2658808 0.7470393
H -1.592801 0.9331239 -0.24226719
H -0.08197104 1.578888 0.46174312
H -0.31417754 0.16319911 -2.2306557
H 1.2115191 0.70191747 -1.470915
