11

N -0.7522645 -1.3176961 2.454048
C -0.08186024 -1.0036948 -0.093791895
C 0.7053217 1.2594237 -0.11600324
C -0.4184288 0.52984154 -0.5979143
C -0.47228393 -1.1616691 1.3431803
O 1.1919531 -1.0775921 -0.35395235
H 0.7626996 2.3433127 -0.22664294
H -0.28888348 0.26357186 -1.6594496
H -0.76891476 -1.655362 -0.67284036
H -1.3703437 1.0697464 -0.49996218
H 1.493005 0.7501177 0.42332885
