12

O 1.34888954 1.59976330 -1.60128629
C 0.28678730 0.74845239 -1.60072848
C -0.14337742 0.10560624 -0.51908538
N -1.14957523 -0.88101481 -0.43678012
N -0.22240065 -0.62955067 1.62743136
C -1.10922985 -1.29073645 0.76341247
N 0.45135899 0.32609642 0.78054981
H -0.18164827 0.63950615 -2.57472789
H 0.17007172 1.24698726 1.11854049
H 1.80006017 1.50135254 -0.74985925
H -1.70866443 -2.10348780 1.16440009
H 0.45772812 -1.26297392 2.02813307
