12

O -0.42284155 -0.08909025 2.7344408
C 0.33401343 -0.15225375 1.5795889
C -0.22800003 0.055719234 0.2792901
N 0.45941222 0.10006795 -1.7518533
N -1.3177292 -0.3330223 -0.47245294
C -0.8428808 -0.3038931 -1.6851257
N 0.7720594 0.53326577 -0.47420025
H 0.87348306 0.5791804 -2.533742
H -0.72804093 0.8187244 2.8438995
H 1.5175 0.43635917 0.4595343
H 0.96837616 -1.0427145 1.5955234
H -1.3853519 -0.6023432 -2.5749028
