15

N 0.23547251 0.77134113 0.39143834
C 0.33924218 -0.48878337 1.12508945
O -0.25845450 -2.32384354 -0.40314144
N -0.80243610 2.28822929 -1.01002578
C 0.78497175 -1.68613441 0.27942335
C -0.67350248 0.97312709 -0.61567375
O -1.33562645 0.07476276 -1.12373563
H -0.61177175 -0.74621944 1.61041188
H 1.21180498 -2.43384786 0.95708481
H -0.77366805 -1.62029443 -0.83647373
H 1.59349665 -1.35490974 -0.39390872
H 1.08414483 -0.31622565 1.90921185
H -1.30284108 2.37518874 -1.88229144
H -0.00043966 2.89248477 -0.91470896
H 0.50960704 1.59512451 0.90729952
