15

N -0.3361447 0.7222387 0.41111612
C 0.9803838 -1.3919766 0.799097
O 0.86687577 -2.1802716 -0.35286346
N -0.76084274 2.082503 -1.4086691
C -0.26673397 -0.55874085 1.1119723
C -0.44921598 0.81905425 -0.95236087
O -0.30420056 -0.12973475 -1.7154883
H -1.1521089 -1.1745317 0.90424275
H 1.1369143 -2.0856898 1.632612
H -0.2667374 -0.31431517 2.1795678
H 1.85158 -0.7160947 0.76748675
H -0.4538423 2.872892 -0.8623686
H 0.51470566 -1.5987827 -1.0500364
H -0.73801744 1.482718 0.94031465
H -0.6226156 2.170732 -2.4046226
