12

C -0.026868599 -1.3960348 1.6502315
N 0.50049275 0.7622761 -0.92031795
C 0.20538759 0.5983798 0.48103982
N 0.75032824 -0.64884895 0.99244237
C -0.39758694 0.515329 -1.9142014
O -0.11636455 0.44174114 -3.0894763
H 1.4746569 0.7379425 -1.2009665
H 0.6572182 1.4317431 1.0344934
H 0.36146316 -2.3229902 2.0732954
H -0.8870751 0.6532954 0.6163922
H -1.0912601 -1.1704091 1.8129581
H -1.4303918 0.39757612 -1.53589
