12

C -1.1197716 -1.0157492 -1.7007643
N -0.9963496 -0.5876789 -0.32236364
C 0.057001475 0.022721527 0.00962261
N 0.24267717 0.47000104 1.3138394
C 1.3509257 1.1500756 1.7473272
O 1.5054989 1.5451388 2.8783958
H -2.0002804 -0.5396826 -2.147273
H -0.24355352 -0.7895077 -2.3262515
H -1.2960618 -2.0961032 -1.7254913
H 0.89568293 0.2551094 -0.6600968
H -0.49278116 0.28561464 1.9874166
H 2.0970116 1.300061 0.9456386
