10

N 0.6041946 -0.8098433 1.5038353
C 0.014580046 0.16934034 0.74382967
O -0.3991194 1.2174613 1.1894379
N -0.101658516 -0.17521651 -0.6046775
C -0.63944626 0.67438287 -1.5595175
O -0.7691907 0.34683144 -2.7128403
H 0.8278549 -0.51916206 2.4439442
H 1.2499878 -1.4545499 1.076778
H 0.13484511 -1.1021439 -0.9312325
H -0.92204756 1.6528999 -1.1495572
