10

N 1.2210816 -1.0551515 0.93436074
C -1.0757768 0.9650083 -0.8466153
O -0.7200648 2.0116796 -1.4667499
N -0.008000205 0.44074127 -0.28765476
C -0.020257803 -0.7317569 0.48549995
O -1.0279171 -1.3671287 0.71558404
H 0.38760006 1.5365103 -0.9372362
H -2.0932672 0.5828903 -0.7982186
H 2.0233567 -0.4966734 0.70980906
H 1.3132455 -1.8861192 1.491221
