10

N 0.43249645 -0.81771358 0.23311641
C 0.64317200 -0.50739603 1.52926804
O 0.31486420 0.53462467 2.12246002
N -0.44037904 -0.15066312 -1.78276206
C -0.19872205 0.09894753 -0.48868582
O -0.63067735 1.26318366 -0.06602074
H -0.38674524 1.29821703 0.91130495
H 1.16618727 -1.29362913 2.09485948
H -0.06698517 -0.99174607 -2.18650157
H -0.83321106 0.56617522 -2.36703864
