11

N -0.84504493 -1.40464413 0.55533749
C -0.11574574 -0.28324484 0.06110566
C 0.31058837 -0.21191711 -1.18791726
N 0.77672769 -0.25960004 -2.31435238
N 0.70417065 1.90755292 0.64784536
C 0.09176240 0.84430709 0.98351446
H -0.34958586 0.66013164 1.97334749
H -0.24399038 -2.03600001 1.07669125
H -1.30195674 -1.92441239 -0.18052402
H 0.22125695 0.16307901 -3.05474709
H 0.75181765 2.54474774 1.43969932
