11

N 0.51364726 -0.10443833 -2.3983712
C -0.3040376 -0.07004159 0.0037272829
C 0.14970843 -0.023035968 -1.2367612
N 1.873772 0.23176062 0.9947782
N -1.6921047 -0.19997758 0.30383584
C 0.6188167 0.08241954 1.1396703
H 0.0966361 0.0628913 2.1068437
H 2.3224418 0.2973357 1.9056654
H -2.283052 0.10985791 -0.45458546
H 0.6365247 0.7728253 -2.89907
H -1.9323522 -1.1595969 0.5342669
