9

O 0.18877301 -1.63393774 -1.49682082
C 0.07000777 -0.66008845 -0.61165280
N -0.09798714 0.70351030 0.62999094
N -0.09913611 1.54764280 1.53623136
N 0.72683698 -0.50468892 0.53728129
C -0.74679438 0.49541183 -0.55932530
H 0.86261901 -2.25233737 -1.18155826
H -1.50025550 1.06655018 -1.07311707
H 0.59593644 1.23793722 2.21897049
