11

N 0.09321176 1.448081 0.28927484
C 0.036637686 -0.26222453 -0.9972852
O 0.03645325 -0.8665448 0.14631306
N -0.09598387 -1.0811498 -2.0353189
C 0.3434941 0.33165777 1.0863802
N -0.54364425 0.7203668 2.0268857
H -0.9118773 1.4326658 0.11701842
H -0.0602552 0.89096713 2.9092917
H -0.12223476 -0.70091194 -2.9662125
H -0.1711865 -2.0845792 -1.9188701
H 1.395385 0.17167212 1.3425221
