11

N -0.69655174 0.40284064 1.9828413
C 0.020922033 -0.2650769 1.0146087
O 0.7358778 -1.2178298 1.2425687
N -0.123187415 0.28612974 -0.2542152
C 0.5244547 -0.22954005 -1.3628613
N 0.4052906 0.35285777 -2.4867604
H -0.7240846 -0.08458708 2.8658116
H -1.5516844 0.8748928 1.7252499
H -0.62348986 1.153788 -0.39412475
H 1.0973748 -1.1311567 -1.1373038
H 0.9350783 -0.14231825 -3.1958144
