11

N 0.42688807 -1.18489684 2.12070806
C 0.10499873 -1.24494114 0.82984405
O 0.12250145 0.02800176 0.37756425
N -1.01939556 1.24975777 -1.36522633
C -0.20550199 0.15632699 -0.97050220
N 0.44591625 1.24006334 -1.61555966
H 0.61804515 -0.31610152 2.60866936
H -1.14215311 1.87144039 -0.56859173
H -0.37338307 -0.80479233 -1.45245307
H 0.46965638 -2.04232900 2.64418125
H 0.55242791 1.04747074 -2.60863364
