11

N 0.99182886 -0.8442113 -1.5271261
C 0.24774529 -0.22485785 -0.5565564
C 0.58766216 -0.27818066 0.8137338
N -0.11864872 0.3808365 1.70166
C -1.1514671 1.0883172 1.2073807
N -1.5077446 1.1585777 -0.062401403
N -0.8007475 0.4828263 -0.96103996
H 1.528089 -1.6547669 -1.2670826
H 0.5404709 -0.902684 -2.4282498
H 1.4370039 -0.8588738 1.1670423
H -1.7541926 1.6530168 1.9126397
