12

C 1.3308163 -0.8704759 -1.3809738
C -1.5959893 0.39772055 1.2099639
N -0.5839137 -0.07614308 0.2837072
C 0.45052776 0.6344541 0.17213435
O 1.4754333 0.33476824 -0.6329123
H 1.2307726 -1.7295318 -0.7102039
H -1.3431612 1.3450933 1.7097223
H -2.5397456 0.5284841 0.6706977
H 2.2409885 -0.94915247 -1.9779601
H -1.7614427 -0.366326 1.9758981
H 0.64983195 1.5721896 0.7031755
H 0.44588262 -0.8210806 -2.0232487
