12

C -0.34925196 -1.1043233 0.9809475
C -0.26101905 -0.62825876 -0.46630225
N -0.2654004 0.8212677 -0.58335394
C 0.8764517 1.5476675 -0.49561122
O 1.9946246 1.0783298 -0.4135028
H -0.34474003 -2.19766 1.0240531
H -1.2694278 -0.74674433 1.4569333
H 0.50786626 -0.72741795 1.5475436
H -1.0974444 -1.0149577 -1.0578065
H 0.66953725 -0.9788422 -0.9225556
H -1.1443125 1.3131324 -0.5421865
H 0.68311626 2.6378067 -0.52815866
