11

N 1.6181619 -1.5988019 0.64378095
C 0.7576953 -0.73516303 0.30526778
C 0.8556386 0.6700366 0.73782057
N 0.019934911 1.5881083 0.42828095
C -1.0545342 1.205245 -0.37652552
C -1.2021306 -0.05080512 -0.80417895
O -0.32718027 -1.0400187 -0.4893927
H 1.3953887 -2.5141733 0.25781718
H 1.7114317 0.9128808 1.3648882
H -1.7646306 1.9777458 -0.6392469
H -2.0097754 -0.41505456 -1.4285117
