11

N 0.49029108 -2.29522276 -0.28249113
C -0.29589522 -1.37668398 -0.55846638
C 0.97373389 1.21452674 0.96192984
N -0.58017740 0.05218118 -0.36591362
C -0.22690756 1.19988548 0.16411055
C -1.38762378 -0.72117706 -1.09626698
O 1.67435570 0.23627963 1.17318807
H 1.25415794 -1.95208143 0.30644735
H 1.23231692 2.20310220 1.38783380
H -0.84565960 2.07238535 -0.01691141
H -2.28859193 -0.63319545 -1.67346022
