13

C -0.092919774 -1.3296407 0.9731622
C -0.1650412 -0.10538072 0.12179188
N -1.1079577 0.76758975 0.30442664
O -1.2867999 1.8501348 -0.34778103
C 0.82011205 0.18211547 -0.98070115
O 1.2998956 1.5002577 -0.94960123
H 0.8375422 -1.3320744 1.5539421
H 1.6764251 -0.49105123 -0.8731521
H -0.93607426 -1.3907769 1.6685153
H 0.3319149 -0.05379659 -1.9415456
H -0.09466629 -2.2333646 0.3516609
H -1.7822493 0.5810834 1.0551066
H 0.49981835 2.054904 -0.9358246
