13

C -0.5485059 0.026860585 1.7067914
C 0.026955737 0.1691373 0.33132794
N 1.1375487 0.7880633 0.23199499
O 1.5580506 0.8741647 -1.1069335
C -0.71526086 -0.41537124 -0.8569743
O 0.06143267 -1.3155214 -1.607064
H 0.08375588 0.52940834 2.4408135
H -1.5565681 0.45585945 1.7467121
H -0.635616 -1.0317355 1.9719857
H 2.4135652 1.3083407 -1.0261878
H -1.0971452 0.4129932 -1.4734544
H -1.5825766 -0.97935367 -0.49557555
H 0.85436416 -0.8228459 -1.8634363
