10

N -0.82473683 0.8720449 1.35505
C -0.17178506 0.17793572 0.35081816
C 0.34890872 -1.0672784 0.21204281
N 0.98668975 -1.1486182 -1.0276543
C 0.8138117 0.008721462 -1.5521023
O 0.11559438 0.8833131 -0.771524
H -1.5004288 1.5369991 1.0037519
H -1.2370636 0.26566157 2.0489798
H 0.3276522 -1.9043771 0.89404327
H 1.1413575 0.37559775 -2.513405
