10

N -1.67933835 0.76028319 0.75985428
C -0.45418427 -0.12127977 0.58032240
C -0.70936138 0.93412336 1.52909507
N 0.88476125 -0.91529552 -1.26957598
C 0.41004666 0.18330926 -0.61159583
O 0.68976514 1.32347780 -0.92340139
H -0.56587910 -1.16723405 0.86953968
H -0.39514313 1.56409169 2.34887148
H 0.45100723 -1.81521251 -1.14394364
H 1.36832592 -0.74626354 -2.13916573
