10

N -1.3580198 -1.3922546 0.59410185
C -0.33309695 -0.2729725 0.90213853
C 0.40154377 0.16853192 -0.18609107
N 1.5845336 0.84393674 -0.14934629
C -1.596852 -0.6634233 -0.35424846
O -0.17632473 -0.071627595 -1.3188686
H -2.4264023 -0.31019133 -0.9570588
H 2.005037 1.0211055 -1.0498726
H -0.32732973 0.06006972 1.9279544
H 2.226911 0.6168257 0.591291
