10

N -0.620281 -1.3873433 -0.3153354
C 0.12570457 -0.4335689 0.099365756
C -1.5678824 0.5887637 -1.1773587
O -1.6687422 -0.68888265 -1.1220133
C -0.3393341 0.91808647 -0.3621675
N 1.261245 -0.6236819 0.8221725
H 1.6001893 0.14396012 1.3782446
H 1.4046057 -1.5431827 1.2106146
H 0.40262792 1.4268398 -0.9895388
H -0.59813267 1.599009 0.45601645
