11

C 1.2974855 0.6372199 0.57244855
C 0.100759126 -0.29186785 0.41367137
C -0.7482614 0.052090377 -0.7834779
O -0.5420062 0.9480822 -1.5584122
C -1.9309065 -0.8307527 -0.97406644
N -2.8441985 -1.5211943 -1.113847
H 1.9455732 0.59956765 -0.3077981
H 1.8831644 0.34223497 1.4475814
H 0.9773169 1.6746119 0.7028082
H -0.5502531 -0.27046144 1.2972091
H 0.4113264 -1.3395308 0.30388248
