11

C -1.1030363 -1.5427809 0.3787303
N -0.4065544 -0.44308156 -0.25199467
C 0.68657297 -0.03076906 0.25763303
N 1.4018494 1.0347474 -0.15344621
C 0.87369204 2.1541038 -0.7643017
N -0.06665982 1.7365814 -1.4569671
H -2.0659196 -1.1838528 0.7598359
H -0.5475304 -2.001116 1.2108592
H 1.3522961 3.1301227 -0.6992392
H -1.3169775 -2.3120604 -0.37129572
H 1.1922679 -0.5418943 1.0901862
