11

C 0.9387042 1.090052 -0.769022
N 0.088516675 0.13617414 -0.08791005
C 0.3792876 -1.0688505 0.4256333
N -0.69851303 -1.6120859 0.9607454
C -1.6400509 -0.6630154 0.73642004
N -1.2174817 0.41360047 0.10657585
H 0.57371163 1.2437043 -1.7866427
H 0.9227008 2.0404553 -0.23066406
H 1.9574361 0.6979911 -0.7976705
H 1.3666713 -1.5085927 0.39232227
H -2.6709824 -0.76943284 1.0502123
