11

O -0.58569960 -2.25013098 0.41758183
C 1.01754338 -0.38464012 0.80587472
C -0.07113036 -0.99229218 0.30785877
C -0.37917124 1.04490267 -0.61073106
C 0.87702965 0.99904445 0.21267969
N -0.88761419 -0.14452064 -0.52215462
H 0.04340495 -2.69901138 0.99757625
H -1.74300104 -0.45131602 -0.97219538
H -0.84668632 1.83027865 -1.19048564
H 1.73187285 1.26335942 -0.42619535
H 0.84345189 1.78432629 0.98019118
