14

C -0.3028399 -0.10553968 -0.07137491
N 0.72815114 -0.76599014 -0.7133117
C 2.0559177 -0.40764377 -0.60546416
O -0.05223656 0.8979392 0.6612598
N -1.5524805 -0.43504658 -0.147568
C -1.9955167 1.1335545 1.1516649
N 2.941108 -1.0788798 -1.2204207
H 3.8616056 -0.6855238 -1.0449777
H -1.6008946 2.1298034 1.3200912
H 2.2103045 0.46355984 0.035047725
H 0.52832365 -1.574505 -1.28423
H -2.919851 1.1412944 0.5849438
H -1.8830851 -1.218144 -0.69809747
H -2.018506 0.5051218 2.0324376
