14

C -1.82261256 -0.68454393 0.25767096
N -1.04862386 -0.02395112 -0.67823356
C 0.28424636 0.34064222 -0.55352647
O 0.78007874 -0.02626460 0.63622024
N 1.00346200 0.94413728 -1.41177729
C 2.15468013 0.28906993 0.85563409
N -3.03576847 -0.94246653 -0.01467191
H 2.32523659 1.36692302 0.77502218
H -3.47451585 -1.42540077 0.76030286
H -1.29131990 -0.92910901 1.17838270
H -1.52051074 0.21152459 -1.53824020
H 0.48665014 1.16176071 -2.25688345
H 2.36809746 -0.06314389 1.86513855
H 2.79090015 -0.21917795 0.12496120
