10

N 1.0200241 -0.15109335 -0.84832764
C -0.3280049 0.31208542 0.9885385
C -1.0106087 -0.5328428 0.11318737
C -0.18376611 -0.7522172 -0.98808897
C 0.91733974 0.5725194 0.39599702
H 1.8205982 0.97969747 0.8343028
H -0.40691862 -1.2985613 -1.8960397
H 0.85734683 1.0958544 -0.784031
H -2.0128782 -0.9229865 0.24566884
H -0.6731324 0.6975443 1.9387927
