10

N -1.01198892 -0.94991804 0.23858817
C -1.13626285 0.26361336 0.64059277
C 0.28226254 -1.02503741 -0.42844993
C 0.88592921 0.34494198 -0.34416143
C 0.01156155 1.12270747 0.31014991
H -2.02304044 0.59487339 1.17616680
H 0.13749230 -1.36027581 -1.46387864
H 0.90089107 -1.78875937 0.05932512
H 1.85242119 0.62449541 -0.74593620
H 0.10073423 2.17335864 0.55760337
