10

N -1.0493917 0.2627607 0.3614788
C -0.66022575 -0.96850014 -0.1006417
C 0.6686488 -0.8860075 -0.43840873
C 1.0937002 0.44589412 -0.16898192
C 0.01075218 1.130066 0.323351
H -1.9738947 0.49364513 0.6801994
H -1.3570559 -1.7920092 -0.14885053
H 1.276229 -1.6872267 -0.83469397
H 2.0859306 0.8463977 -0.32209402
H -0.09469285 2.1549795 0.6486416
