11

C -1.3074614 -0.78758436 0.68096745
N -0.12783842 -0.05362788 0.26445243
C 0.39769343 0.09864082 -0.9722183
C 1.4892936 0.903911 -0.7690756
N 1.5714936 1.1940125 0.5556106
N 0.5947213 0.6148306 1.1738911
H -1.3652846 -0.70730525 1.7667849
H -2.203495 -0.35264832 0.23257199
H -1.2211989 -1.8377641 0.39525163
H -0.034187526 -0.35897768 -1.8478533
H 2.2062643 1.2865126 -1.4803827
