11

C -0.5992476 -1.5268123 0.33098215
N 1.2238036 -0.15667728 -0.6465971
C 0.022911051 -0.2220142 -0.05002756
C -0.45794374 1.0731483 0.10435394
N 1.4575417 1.0944393 -0.96976715
N 0.39555505 1.9151688 -0.49226898
H -1.1987203 -1.917103 -0.49737674
H -1.3631164 1.4239128 0.5813795
H 1.584089 1.9842461 -0.12056705
H -1.2477968 -1.4132845 1.2038012
H 0.18292415 -2.2550237 0.5560879
