9

O 0.52277672 -0.89637834 -1.45213883
C 1.07843447 -0.05179088 -0.52172009
C -0.77470522 -1.18375938 -1.17789867
O 0.17100001 0.93507682 1.53843676
C 0.13518341 0.22469563 0.38854791
N -0.98968771 -0.48075270 -0.03743655
H 2.10860396 0.23925392 -0.64413698
H -1.86819557 -0.51017649 0.45800965
H -0.38341012 1.72383108 1.44833672
