9

O -1.0950083 0.9122496 1.8771565
C -0.3059557 -0.025091931 0.0057940236
C 1.0044028 -0.6800742 -1.4578007
N 1.7960163 -0.1994696 -0.5523026
C -1.5333555 0.30246815 0.8055012
N -0.3332176 -0.5987559 -1.1607176
O 0.93569154 0.24755968 0.4354956
H -1.8620368 1.1542269 2.4151032
H 1.3934634 -1.1131127 -2.3682296
