9

O 0.7061848 2.4131517 0.09868152
C -0.3220514 -1.8135465 -0.23402545
C -0.09391547 0.20659919 0.13129194
N 0.7366304 -1.5033259 -0.9220917
C -0.19791797 1.6158676 0.5637552
N -0.8903989 -0.773137 0.45204154
O 0.89677805 -0.15695344 -0.6854714
H -0.7081622 -2.8235428 -0.21749416
H -0.12714733 2.8348873 0.8133125
