10

C -1.0820069 0.24385908 -0.25316823
C -0.31618717 -0.5993454 -1.0501696
N 0.95205426 -0.89254326 -0.76447695
C 1.4426061 -0.32466722 0.338941
N 0.8110297 0.49488932 1.176553
C -0.45719522 0.7731388 0.86822224
H -2.1128597 0.475905 -0.49494115
H -0.7310923 -1.0548736 -1.9470814
H 2.4777215 -0.5585051 0.5800198
H -0.9840701 1.4421424 1.5461016
