11

C 0.20956 0.3962616 -0.94522697
N -1.632165 1.0027212 0.8110788
C 1.2047616 -0.74004805 0.60640836
O -0.12749927 -0.83825487 0.8963664
C -0.84479123 0.18262431 0.108766206
O 1.2467308 -0.3460688 -0.8165454
H -2.1192617 1.6057469 0.14280847
H 1.7207733 0.04966811 1.1684656
H 1.7201787 -1.6982534 0.67625666
H 0.044517417 0.79400057 -1.9479823
H -1.4228051 -0.40839767 -0.7003955
