12

O -0.52443991 1.03784867 1.49068225
C 0.00963870 -1.06352974 0.45901487
C 0.12240607 0.01008258 1.53076114
O 0.74667476 -0.69034805 -0.68600590
C 0.30696696 0.52001215 -1.29781874
O -1.06941993 0.69205817 -1.28740969
H -1.05195662 -1.21085191 0.22210772
H 0.45649877 -2.00213241 0.79917727
H 0.86901563 -0.14733482 2.33171059
H 0.81362106 1.36630434 -0.80658819
H -1.31265867 1.05042422 -0.41851966
H 0.63365304 0.43746651 -2.33711198
