12

O -1.2631147 -0.66076636 1.2314686
C 0.124740124 -0.4860186 1.1840799
C 0.5842611 0.70304626 0.34414148
O 0.85572684 0.39867574 -1.0429652
C -0.14642297 0.027236762 -1.8268657
O -1.2857339 -0.18693006 -1.4871124
H -1.580601 -0.63146627 0.31263044
H 0.6599809 -1.385138 0.8354071
H 0.44826707 -0.29573065 2.2134807
H 1.5499599 1.0737704 0.69609493
H -0.16105811 1.5017143 0.39880833
H 0.2139946 -0.058393802 -2.8591685
