10

N -0.17399292 1.16068915 -0.85197616
C 0.85344769 -1.10816434 1.70612902
O -1.19285179 -0.87155208 -1.06599481
C -1.01511590 0.25832772 -1.45271609
C 0.64441483 -0.11087318 0.89250927
N 0.59948284 0.95007999 0.25780044
H -1.50663861 0.69979630 -2.33403196
H 0.24662034 -1.22292841 2.59574309
H -0.07145140 2.08990567 -1.23015060
H 1.61608506 -1.84528038 1.48268798
