9

O -0.24053898 -1.2171702 1.7570888
C -0.18875875 0.12549432 1.3355079
C 0.11463571 0.26388258 -0.10037536
C 0.33746254 0.33402056 -1.2824806
C 0.5976013 0.41715872 -2.6396487
N 0.81291336 0.4855019 -3.7795649
H -0.9161602 -1.6760868 1.2419598
H 0.60430807 0.60079634 1.9178681
H -1.1214628 0.66640264 1.549645
