9

O -0.88612115 0.21594967 1.8619405
C -0.4058513 0.91550016 0.74113744
C 0.93092513 -0.6603993 -0.961497
C 1.7315187 -1.5434355 -1.8615713
C 0.34185624 0.073016346 -0.20310439
N 0.67872477 -1.596686 -2.4395716
H -1.2135209 1.4153936 0.18185212
H -1.4324448 -0.51568085 1.5533648
H 0.25491342 1.6963418 1.1274496
