9

O -0.48558953 2.0626357 -0.2833321
C -0.07016042 -1.3632095 -0.14145482
C 0.19166754 1.1887493 0.58802736
C -0.32530323 -3.7393184 -0.8929456
C 0.050135043 -0.2276004 0.22012186
N -0.20371692 -2.6223445 -0.5403787
H -0.1748799 1.9121231 -1.1838101
H 1.2633085 1.430906 0.65722984
H -0.24546117 1.3580586 1.576542
