11

N 0.3253494 2.930022 0.45002082
C -0.20655988 1.9103473 0.35201433
C -0.8539152 0.60137147 0.20536812
C 0.008762228 -0.3566179 -0.5969483
C 0.915836 -1.2928501 0.065776795
O -0.3323922 -1.7208502 -0.4679287
H -1.8235524 0.73799527 -0.2863952
H -1.0474902 0.1753842 1.195958
H 0.23746128 -0.036671225 -1.613196
H 1.7987771 -1.6539501 -0.45823708
H 0.9777239 -1.2941808 1.1535671
