10

N -0.41484615 -1.8458104 -0.610976
C -0.46355507 -0.33478856 -0.47867927
C 0.5013135 0.27220124 0.5025853
N -0.015803352 1.2833022 1.2616551
C 0.0625151 -1.1591893 -1.5410141
O 1.659728 -0.08937231 0.5611808
H 0.56074244 -1.2764453 -2.4940321
H -1.4479133 0.12523007 -0.57011276
H 0.5691685 1.6343023 2.005764
H -1.0113497 1.39057 1.3636289
