10

N -0.8262316 0.8720026 1.3530494
C -0.17065133 0.17637546 0.3505306
C 0.35203007 -1.0671552 0.2138296
N 0.9883003 -1.1466616 -1.0257983
C 0.81163406 0.0086909775 -1.5528468
O 0.11227087 0.88231456 -0.77192616
H -1.5000346 1.5386474 1.0029274
H -1.2346798 0.26744962 2.051685
H 0.33287302 -1.9054412 0.8955887
H 1.1344889 0.37377712 -2.5170393
