11

C 0.9380276 1.0894971 -0.7667262
N 0.08892968 0.13689315 -0.08623273
C 0.3782052 -1.0700928 0.42621604
N -0.69895744 -1.6116658 0.9589062
C -1.6404388 -0.6633308 0.73487514
N -1.2159095 0.4134169 0.106563784
H 0.5744742 1.2441248 -1.7851862
H 0.9222648 2.0394673 -0.22824024
H 1.9583085 0.7013428 -0.79638356
H 1.3666215 -1.5089406 0.3921705
H -2.6715257 -0.77071214 1.0440372
