11

N 2.4250724 -0.28307346 1.0348866
C -0.5792788 0.19421941 0.3372556
C -1.8225785 0.2968855 -0.1077896
C 1.7755198 -0.5271324 -0.19764134
C 0.4747535 -0.32475153 -0.5040624
N -2.9802396 0.30255565 -0.46937045
O 1.7717379 0.22488016 1.9302714
H -3.3490398 1.1362481 -0.9206165
H 0.18484357 -0.597524 -1.5170819
H 2.4584932 -0.9388183 -0.93457603
H -0.35928392 0.5165109 1.3487248
