11

N -1.3091313 1.835506 1.3903999
C -0.11648464 -0.7623307 -0.7525561
C -0.24818902 0.71021885 -0.6195406
C 0.7937473 -1.5393416 -0.15144525
C -0.84912837 1.2841446 0.40109167
N 1.7813972 -1.0891055 0.7910104
O 2.1444387 0.052201513 0.6426557
H 0.16342409 1.3515013 -1.3951261
H -2.306624 2.0369062 1.341128
H 0.7936764 -2.6200323 -0.2598432
H -0.8471266 -1.2596685 -1.3877746
