11

N -2.76957347 -1.13422764 -0.48648434
C 0.45108394 0.26358030 -0.55855359
C -1.70959545 -0.70091140 -0.08693997
C -0.51183599 -0.33049153 0.34033172
C 1.71615060 0.66064435 -0.29627259
N 2.41268781 0.58451311 0.93240492
O 1.80571706 0.16809208 1.90439093
H 2.33544908 1.08443711 -1.08105268
H 0.12014409 0.40410348 -1.58587688
H -3.58570597 -0.52737116 -0.46824604
H -0.26452177 -0.47236879 1.38629826
