11

O -1.2473155 2.0709872 -0.8733738
N -0.92239934 1.3329514 0.10260226
C 0.5032432 -0.44654283 -1.0642734
C -0.1801472 0.2730112 0.047235496
O 0.9706285 -1.4273703 -0.10450917
C 0.33067766 -0.76319706 1.0031372
H 1.0589256 -0.42478594 1.7502593
H -0.14836173 -0.8898215 -1.827035
H -0.4210466 -1.4006615 1.4848664
H 1.3327005 0.07857244 -1.552203
H -1.2769052 1.5968567 1.0332937
