11

C 1.3392506 -0.9724991 -0.07985578
C 0.16409954 -0.13647558 0.15767278
N 2.2522976 -1.6445282 -0.3006218
C -1.0532326 -0.48553324 -0.66721666
C 0.38745904 1.220109 0.67611605
O -0.059177477 0.17665923 1.5229359
H -1.3770437 -1.5080513 -0.45661378
H 1.3992593 1.5730195 0.86247164
H -1.8693669 0.1982659 -0.41981155
H -0.3520333 1.9843917 0.44055295
H -0.8315125 -0.4053581 -1.7356298
