10

O 1.8316497 -0.16235591 0.78131634
C 1.1347338 -0.8111508 0.03510987
C -0.117247775 -0.26805362 -0.5601428
C -1.0618286 0.38856518 0.39257532
N -0.29053292 1.1801578 -0.53818417
H 1.3969301 -1.8496591 -0.24703053
H -0.5064115 -0.7834696 -1.4343823
H -2.1272945 0.32762474 0.18847586
H -0.7738828 0.3950674 1.4422752
H 0.51388454 1.5832735 -0.060012702
