12

O 2.0161877 0.39511415 1.358225
C 1.3473525 0.7516299 0.15226303
C -0.12628001 0.5509365 0.17723146
C -1.9320464 -0.89711934 -0.58612627
N -0.6810672 -0.44293448 -0.51405436
H -2.6924157 -0.4245294 0.020456072
H 1.7797384 0.19184084 -0.6979239
H 1.6210854 -0.43083373 1.6651009
H -0.02365642 -0.9316285 -1.1151195
H -0.77213424 1.1291926 0.82674193
H -2.1385403 -1.6976339 -1.2794299
H 1.601776 1.8059655 -0.007364602
