12

O 0.8770684 0.6651872 1.2888042
C -0.76389 0.4392351 -0.5008782
C -0.34415084 -0.95008284 -0.095756
O 0.19637644 1.1320714 -1.247957
C -0.37467209 0.15404834 0.9324329
O 0.95073265 -1.3081831 -0.49392298
H -1.0539312 -1.7711402 -0.05167387
H 0.7618714 1.5649683 -0.5853994
H -1.1235216 0.17504108 1.7195913
H -1.7938695 0.64709723 -0.7731428
H 1.511021 -0.03438834 1.045499
H 1.1569654 -0.7138542 -1.237597
