10

O -1.03075277 -0.43276601 -1.41734683
C 0.20217705 -0.66701595 -0.91692061
C -0.19529621 0.90103255 1.04725582
O -1.40527494 0.78465267 1.01423086
C 0.72162465 -0.00755465 0.31880756
O 0.31985260 -1.38555805 0.27740853
H 0.90957059 -0.94248336 -1.69974369
H 1.78882343 0.15587588 0.46596538
H -1.59533975 -0.14407324 -0.67848380
H 0.28461520 1.73789029 1.58882665
