10

O -0.12652068 -1.1835631 -1.0823243
C -0.066474706 -0.48060033 0.11417596
C -1.3114195 0.3747836 0.3359136
O -1.483767 1.0066973 1.3459928
C 1.1432441 0.44279495 0.1434851
O 1.9260848 0.44991428 -0.7751323
H 0.67078525 -0.931063 -1.5782735
H 0.025198393 -1.1519697 0.9840434
H -2.0201852 0.37825513 -0.5161446
H 1.2430544 1.094751 1.0282637
