10

O -0.18297431 -1.1999148 0.79104817
C -0.11575559 1.2582018 0.5918394
C 0.6050524 -0.034019094 0.5051651
O -1.270571 1.3959764 0.23672959
C 0.16773653 -0.9990112 -0.5480605
O -0.8070461 -0.72529036 -1.4426504
H -1.3922111 -0.058501363 -1.0414087
H 1.6185298 -0.054885764 0.90479785
H 0.8986529 -1.7012521 -0.95020336
H 0.47858644 2.1186965 0.95274276
