12

O 0.82818313 0.70273134 -1.38191014
C -0.43148970 1.38387798 -1.24470402
C -0.54220907 0.62745327 0.04171159
N 0.84836924 0.63378230 0.26443919
N -1.21020716 -0.39202621 0.39308196
C -0.22694575 -1.24810656 1.05266303
N 1.08250203 -0.54846353 0.93600212
H -1.15720923 1.09426286 -2.00595485
H -0.29598701 2.46599740 -1.17611410
H 1.80288398 -1.08973126 0.46385895
H -0.22561908 -2.21695608 0.54568838
H -0.47227125 -1.41282126 2.11123764
