12

O 0.4012051 1.1770223 -2.1688175
C 0.7555095 1.2899925 -0.81509674
C 0.21003383 0.17035924 0.019547025
N -0.7485014 -0.61547893 -0.43005303
N -0.9813506 -1.4210544 0.62466276
C -0.16371334 -1.0921317 1.6446215
N 0.60364467 -0.08716339 1.2977443
H -0.4880993 0.80255073 -2.2076335
H 0.40647113 2.2398858 -0.37986377
H 1.8490176 1.2882744 -0.7509761
H -1.6774994 -2.1458237 0.5698498
H -0.16671768 -1.6064326 2.596015
