11

O -1.4555348 -0.42396775 -0.16582529
C -1.1618265 -0.7138754 1.0771203
C 0.27774352 -0.28076878 1.2919434
C 0.83259374 0.20037329 -0.051608764
C -0.38452277 0.16875301 -0.92493534
N -0.53930146 0.5517113 -2.10173
H 0.83117557 -1.1152246 1.734525
H -1.4901054 0.37729827 -2.4211617
H 0.24564113 0.50104135 2.0615158
H 1.256277 1.2071065 -0.030428497
H 1.5878594 -0.47244707 -0.46941525
