11

O -1.43367369 0.47085433 -0.22068986
C -0.21169707 0.26970989 -0.95618071
C 0.79681126 -0.31756344 -0.01645057
C -1.36797588 0.18445536 1.05558761
C 0.05757031 -0.26518126 1.32342548
N -0.11065423 0.55878944 -2.16518134
H 1.72199752 0.26270922 -0.04441288
H -0.98688248 0.92992932 -2.52707067
H 1.03083754 -1.33726287 -0.33757435
H 0.02798430 -1.21969953 1.85868389
H 0.47568266 0.46326004 2.02986349
