11

O -0.8135911 2.1591823 -0.70239156
C -0.42036492 1.0845913 -0.31153816
C 0.34770238 0.0011459525 -1.076574
C 0.5413827 -1.0873841 -0.05575587
C -0.0169035 -0.69452196 1.0924888
N -0.588202 0.5810855 0.96297103
H 1.285056 0.41804123 -1.460171
H -0.23738602 -0.31338993 -1.9483417
H 1.0469626 -2.025159 -0.23294257
H -0.07623538 -1.210347 2.0414665
H -1.0684205 1.0867562 1.6907886
