11

C -1.4733788 0.7929542 -0.45077738
N -0.48004988 -0.089613065 0.1240414
C 0.84093964 0.025261056 -0.1253462
O 1.3856279 0.84275275 -0.84390694
C 1.6775267 -1.022254 0.61077017
O 1.1993558 -1.8542317 1.3369788
H -0.95605695 1.5213674 -1.0782261
H -2.181989 0.2304597 -1.0655876
H -2.02095 1.3222672 0.33525372
H -0.7519178 -0.8346268 0.7505067
H 2.7608926 -0.9343367 0.40629324
