11

C 1.8055307 -0.6174171 0.26214656
N 0.62604076 0.0127348695 0.072239675
C -0.6180517 -0.6588685 0.0322814
O -0.7168475 -1.8476435 0.17765705
C -1.7840308 0.2726766 -0.21448286
O 2.7192755 0.3616999 0.21996097
H 0.60848135 1.023835 -0.05611976
H -2.707211 -0.3060865 -0.19065285
H -1.8238616 1.0588357 0.5480851
H -1.6876321 0.7579217 -1.1925573
H 3.5783064 -0.05768825 0.341442
