10

C 0.3865115 2.052688 1.5002784
C 0.18173903 1.0921053 0.8058066
C -0.060208365 -0.043425977 -0.018878829
C -1.2070279 -0.722332 -0.375003
N -0.8681453 -1.7417065 -1.2030506
N 0.41612494 -1.7376906 -1.3811661
N 0.91408503 -0.72314763 -0.6766228
H 0.5595953 2.9073393 2.11953
H -2.2304223 -0.53345466 -0.08726383
H 1.9077481 -0.55037504 -0.6836296
