12

N -2.11890397 -1.50146238 1.31090268
C -1.16200035 -0.88017382 0.83831507
C -0.25650255 -0.18046038 0.20832965
C 1.05999756 1.50066605 -0.46319492
N 1.32058643 0.63911019 -1.35553976
C 0.55524010 -0.56697496 -1.02401481
N 0.23573110 1.10625951 0.58957430
H -0.40638564 1.77941259 0.98518943
H 1.47723620 2.50646913 -0.45181706
H 1.24130559 -1.39726249 -0.82048151
H -0.07481987 -0.85465217 -1.87158968
H -1.87148479 -2.15093100 2.05432661
