12

N 0.22836247 -0.9792668 -2.9019454
C -0.16764964 -0.028466113 -0.52068853
C 0.5575442 1.1146444 0.1790499
C 0.20108499 -0.63642234 -1.7160231
N 0.21521084 0.9736329 1.5992568
C -0.5636964 -0.03229317 1.6864837
N -0.80378354 -0.7340644 0.5151144
H 0.22340094 2.1017365 -0.16504396
H -1.0232079 -0.3684194 2.612693
H 1.1480423 -1.2383496 -1.6966096
H -1.6604759 -1.2482989 0.36758506
H 1.6451674 1.0755668 0.04012805
