12

O 0.4058706 1.1764271 -2.168751
C 0.7538027 1.2907418 -0.81307745
C 0.20777147 0.17076415 0.020659406
N -0.75101227 -0.6144558 -0.43101415
N -0.9810482 -1.4209433 0.6242861
C -0.1638926 -1.0926361 1.6439233
N 0.60288453 -0.086257786 1.2985752
H -0.48192108 0.79810077 -2.2117314
H 0.40460145 2.242407 -0.38105524
H 1.8473338 1.2896837 -0.7474437
H -1.6772889 -2.146519 0.57098323
H -0.16710125 -1.6073128 2.5946457
