15

N -0.47485343 -2.2405868 1.29546
C -0.3193802 -0.9259943 0.90040094
O -0.7991392 -0.0015574212 1.5473214
N 0.41557705 -0.7603592 -0.24342424
C 0.93393195 0.54033995 -0.6709139
C -0.13423929 1.5842502 -1.0135608
O -0.6090062 2.303137 0.09192607
H -1.1902982 -2.3454483 2.0011704
H -0.47335374 -2.957918 0.58853644
H 0.96957463 -1.554018 -0.53150374
H 1.5304338 0.34007978 -1.5671414
H 1.5994546 0.96929765 0.08978917
H -0.9419841 1.0852973 -1.5734742
H 0.3187347 2.3227003 -1.6857579
H -0.8254525 1.6407801 0.7711714
