15

N -0.26262552 -0.07943889 -1.062265
C -0.6551729 -1.3180989 -0.40667933
O 0.20357308 0.12701531 1.1657208
N 1.2562035 1.5786674 -0.45156744
C 0.08148502 0.8882385 -0.029882899
C 0.24975501 -1.2541269 0.82233626
O -0.8459445 1.8962736 0.21642874
H 1.4652768 2.3361924 0.18344226
H -0.09583502 -1.8386198 1.6778677
H -1.597865 1.4860955 0.6556404
H -0.44746992 -2.1836462 -1.0410421
H -1.7163138 -1.3419951 -0.104815334
H 1.2747623 -1.5515349 0.56406826
H 2.0322435 0.9273159 -0.49462008
H -0.9420724 0.3276624 -1.6946322
