15

N 2.0366614 0.59455776 0.77899617
C -1.1913626 -0.79844344 0.19291478
O -0.13092287 0.7802131 -1.239271
N 0.08939953 -0.66892296 0.8830332
C 0.688488 0.5387879 0.67242014
C -0.94304484 -0.3326656 -1.26608
O 0.013638761 1.6634594 0.8579667
H 2.5789344 -0.18943298 0.45387474
H 2.4148858 1.5096407 0.58367795
H -1.9108032 -0.14271033 0.6928413
H -0.4756059 -1.1679395 -1.8229725
H -1.5413457 -1.8316342 0.2767213
H -1.9234914 -0.13972858 -1.7301443
H -0.40219992 1.650537 -0.08966582
H 0.69676846 -1.4657182 0.7556869
