15

N -0.30027940 -2.04266397 -0.07117263
C 0.02179685 -0.76018067 0.46433278
O -1.05500369 0.16885662 0.52069476
N 1.01821390 -0.14080296 -0.39366301
C 0.65005389 1.25717792 -0.57344318
C -0.86851023 1.13554118 -0.51066427
O 0.40816607 -1.02617225 1.77679208
H 0.47439545 -0.18264475 2.23201358
H -0.92728681 -2.53137742 0.55445447
H -0.73218036 -1.92656135 -0.98172070
H 1.94541259 -0.32258653 -0.02518063
H 1.01618271 1.91673926 0.23149819
H -1.27058909 0.76213325 -1.46185440
H 1.00866083 1.63873801 -1.53292928
H -1.38903283 2.05380394 -0.22915813
