12

N -0.4856416 -1.5004814 0.4761447
C 0.007890869 -0.2143168 0.47796312
O 0.29375926 0.27177262 1.6150265
N 0.5901704 1.6386107 1.7157251
C -0.39531872 0.17650124 -1.8975213
C 0.16814373 0.5380814 -0.7463326
H -0.17288443 -2.0803952 -0.2905489
H 0.7858436 1.4252337 -0.6383606
H 0.93067276 1.6304594 2.6832564
H -0.21489632 0.7444468 -2.8034391
H -0.441617 -1.9541407 1.3765792
H -1.0661227 -0.67577195 -1.9684923
