13

N -1.5466504 -0.48520076 0.66477937
C 0.7319255 0.10078747 0.16471791
C -0.3328595 -0.94670624 -0.011124537
N 0.13598011 1.5186135 -0.25417244
C 1.9839578 -0.081141636 -0.46537963
N 3.0376205 -0.21523999 -0.9389935
H 0.4746498 1.9049213 -1.1325544
H 0.6636691 1.3787394 0.74322766
H -0.8763792 1.430611 -0.15794715
H -0.5904213 -1.0860568 -1.0753269
H 0.058319133 -1.9094914 0.3510636
H -2.3337688 -1.0819169 0.4407489
H -1.4060428 -0.5279187 1.6709611
