13

N 0.63813737 0.09182463 -1.23794955
C 0.74778247 0.10297514 0.25847161
C -0.66373721 0.01531122 0.77123873
N -1.26758581 -1.17002945 0.11905789
C 1.57081976 1.16560353 0.68231522
N 2.29355491 2.02267783 1.00423598
H -0.13192097 -0.58905921 -1.40264709
H -0.84539346 -1.99640360 0.52142818
H 0.39376894 0.97962034 -1.69041398
H 1.48688849 -0.25898944 -1.67970942
H -1.30663432 0.87475279 0.49171062
H -2.26597235 -1.21380757 0.29486745
H -0.64970784 -0.02447589 1.86739409
