12

O 0.5852219 1.5011078 1.9944397
N -0.4430149 0.90410495 1.4812841
C 0.8625186 -0.5659319 -0.046818126
C -1.0146861 0.048877545 -0.8331673
N -0.08195705 -1.0778078 -1.0562524
C -0.07251786 0.6644024 0.19695088
H -1.9914979 -0.2235633 -0.4116644
H -0.48158845 -1.9642278 -0.78241694
H -1.1722593 0.6501489 -1.7354982
H 1.0033293 -1.1766732 0.8572693
H 0.9632277 1.5690417 0.8096584
H 1.8432242 -0.3294791 -0.47378498
