10

O -0.82427027 0.74527488 0.28510984
C 1.30412104 -0.30527174 -0.26584757
C -0.08665672 -0.47439266 0.16999780
C -1.73786723 0.76391529 1.21867257
N 0.27154725 -0.84950620 -1.16120054
H 2.06907830 -1.01006667 0.04890684
H -0.03734160 -0.15449032 -1.83464728
H -2.15220763 1.79342939 1.10282682
H -0.44542647 -1.22559251 0.86442068
H 1.63902337 0.71670039 -0.42823920
