10

O -1.1075487 0.29248753 0.0626951
C 0.09710676 -0.46934137 0.17817403
C -2.1105134 -0.12833081 0.7862419
C 1.3287419 0.31357494 0.026705274
N 0.8561929 -0.5999236 -1.0250906
H 0.42323458 -0.09046847 -1.7899386
H -2.900538 0.6144727 0.52337015
H 2.2398958 0.009996127 0.5352368
H -0.03239477 -1.3256288 0.8302793
H 1.205823 1.3831617 -0.12767331
