10

O 0.9909228 0.5074738 -1.7980708
C 0.38497606 0.18171766 -0.65371186
C 1.1494447 -0.27887443 0.43472403
N 0.56447124 -0.60096097 1.5675946
N -0.76004034 -0.4918494 1.6794324
C -1.4286121 -0.054599036 0.6262421
N -0.92110145 0.29822773 -0.56244695
H 0.29818502 0.79507923 -2.4142075
H 2.2272866 -0.3823767 0.3784817
H -2.5055327 0.02616216 0.74196213
