10

O 1.40975063 -1.00455286 0.89193042
C 0.92681157 1.28045130 -1.62852837
C 0.43690678 -0.28175246 0.28195625
N 0.64342519 0.39681518 -0.76765605
N -1.88444073 0.21534566 0.49598626
C -0.84783753 -0.41708393 0.94342198
N -2.79006045 0.75898108 0.09848918
H 0.81250047 0.85187895 -2.64078544
H 2.26321421 -0.76556814 0.50447733
H -0.97027032 -1.03451474 1.82070828
