10

N 0.591584 0.66039926 0.74872035
C -0.17395733 0.24591777 -0.31864882
N 0.06241286 -2.0900536 0.4800635
N -0.69933754 1.0820315 -1.3139031
N 1.0002698 -0.18994631 1.5714059
C -0.25678718 -1.122724 -0.21494943
H -1.2586783 1.8274226 -0.91849303
H 0.02591834 1.4886084 -1.8941033
H -0.8616872 -2.1844168 -0.41404215
H 1.5702626 0.28276125 2.27395
