10

N -1.2173917 0.07331595 -1.9889462
C 0.32821155 0.094723076 0.025091747
N -1.3557607 -0.42707932 1.427135
N -0.16757599 -0.042003654 1.3450992
N 1.7067312 0.3478023 -0.16549405
C -0.4675019 -0.006445475 -1.0311586
H 1.914436 1.3385121 -0.098921716
H -1.5670227 -0.44593102 2.4319487
H 2.251227 -0.13927668 0.5359794
H -1.4253528 -0.7936173 -2.4807339
