10

O -0.18414764 -0.03171638 2.3819757
C -0.3015545 0.08669411 1.1931647
C 0.6668976 0.5757926 0.20315821
O 1.8547714 -0.02584065 0.17484488
C -0.9265874 -0.34750485 -0.79764897
O -1.4535042 -0.13878718 0.4783214
H -1.6029574 0.004233069 -1.5801853
H -0.5368519 -1.350202 -0.9631847
H -0.0028405257 0.6504824 -0.84994465
H 2.4867747 0.57684875 -0.24050154
