10

O -0.6673872 -0.21211715 -1.882459
C -0.6017879 -0.9434863 -0.79163224
C 1.1023829 0.4352979 0.8524058
O -2.3239977 -0.14297366 0.5563471
C -1.1327403 -0.12878457 0.3472882
O -0.27992126 0.4283098 1.2145987
H 1.2733048 1.091569 -0.0081268735
H 1.6307964 0.8238698 1.7233529
H -0.44834682 -0.7745212 -2.6419628
H 1.4476966 -0.5771637 0.6301884
