14

C -0.16362485 0.05204121 0.3353001
N 1.5607449 -2.3705118 -0.040003933
C 1.4978111 -1.2446553 0.5431584
O 0.91728926 -0.00016734286 -0.37275517
N -1.1598898 0.8914834 0.011514127
C -1.1238652 1.6900778 -1.2038286
N -0.036581762 -0.7744265 1.3388474
H 2.391215 -2.861348 0.2613811
H -2.012353 0.81972855 0.53856784
H 2.2262142 -0.7524902 1.1881703
H -0.77369684 -1.1289637 1.933409
H -1.7216434 2.5911152 -1.0675037
H -0.08967188 1.9692559 -1.415122
H -1.511948 1.1188604 -2.0511348
