9

O 0.8166094 -1.6768588 -0.7619947
C 0.2706921 -0.56256646 -0.24570477
N -0.30791166 -0.5116104 0.9410619
N -0.69304293 0.7585588 1.0210817
N -0.4102853 1.5252535 -0.009690869
C 0.21341482 0.7075249 -0.8501476
H 0.69975716 -2.3896868 -0.11959179
H -1.1708577 1.1117705 1.8335518
H 0.581624 1.037615 -1.8085654
