11

O -0.81100196 2.160669 -0.7023778
C -0.4208863 1.0847123 -0.31019565
C 0.3465903 0.0011654587 -1.0774901
C 0.5419575 -1.0876673 -0.05625067
C -0.017495677 -0.6948701 1.0911107
N -0.589017 0.5798722 0.9646989
H 1.2836218 0.41991404 -1.4607383
H -0.23781386 -0.31263274 -1.9496267
H 1.0504334 -2.0238774 -0.23025659
H -0.07506494 -1.2114046 2.04082
H -1.071323 1.0841192 1.6903067
