10

O 1.26824881 -0.36211637 -1.79637444
C -0.33978223 0.09864017 1.45678486
N -1.20794111 0.29372532 0.50403851
C 0.92712442 -0.18837279 0.66440756
C 0.58263222 -0.14023503 -0.82621358
N -0.73517957 0.22793748 -0.83838504
H 1.70646641 0.54530271 0.89835305
H -2.18237856 0.53527171 0.62858021
H -1.36253634 0.15511819 -1.62315455
H 1.34334570 -1.16527140 0.93196367
