10

O -0.68802756 1.2685357 -1.6982284
C 0.8555175 0.7546351 0.18734196
N -0.9506787 -0.54352677 -0.3100366
C 0.8776257 -0.436054 1.1344752
C -0.33356753 0.5908374 -0.7624952
N -0.17081387 -1.1042165 0.74228007
H -0.51233107 -1.9656174 1.1481595
H 1.7917889 0.8239184 -0.3763539
H 0.7697924 1.6936035 0.74535066
H -1.639306 -1.0821158 -0.81049305
