10

O 1.8255627 1.3801541 0.6143915
C -0.7733069 -0.43666324 -0.7358767
N 0.4229216 -0.45019606 1.0656749
C -0.5756499 -1.1919982 0.4478414
C 0.93401235 0.61682975 0.32704037
N 0.15585297 0.591897 -0.8276519
H 0.7953028 -0.66466147 1.9756609
H 0.23961417 1.2922019 -1.5442698
H -1.3928198 -0.7221834 -1.575566
H -1.6314901 -0.41538045 0.25275528
