11

C -0.45559463 0.05990203 1.086588
O -1.1942227 0.65987515 0.030281926
C -0.4315315 0.23371612 -1.0768961
C 0.8642685 -0.09529111 0.32115003
O 1.5080925 -1.2313527 0.20547454
H 0.65087974 -0.7200249 -0.7539072
H 1.4091227 0.86637896 0.24514663
H -0.8382897 -0.9360975 1.3458041
H -0.41922748 0.70563483 1.9687254
H -0.17354055 1.0499092 -1.7545503
H -0.91995674 -0.5926501 -1.6178168
