11

C -1.1349536 1.1458797 0.6018382
C -0.22270875 0.027412282 0.20704022
C 0.7631014 -0.014990159 -0.7463536
N 1.2486751 -1.2771512 -0.65406954
N 0.6154927 -1.9781146 0.28835335
N -0.27345333 -1.1953562 0.8126633
H -2.182513 0.8614059 0.46212652
H -0.93892497 2.0393658 0.0025326316
H -1.0011361 1.4024091 1.656879
H 1.1428674 0.70981586 -1.4476918
H 1.9835529 -1.7206767 -1.183318
