11

C -0.3656952 -0.16852233 -0.12825944
C 0.6613589 -0.8939111 0.45193145
C -1.7646201 0.02747191 -0.47795242
N 1.7276508 -0.036446422 0.45896995
N 1.4794468 1.1383718 -0.08548944
N 0.23658268 1.0103645 -0.4642327
H -2.2714732 -0.81126875 -0.95273054
H -2.3176482 0.375186 0.4016564
H 2.6613588 -0.20798136 0.79327375
H 0.7232418 -1.8816683 0.8770862
H -0.77020305 1.448404 -0.8742531
