12

N -0.92523706 2.0773757 1.7903683
C -0.8559146 1.2723391 0.96461076
C -0.761622 0.22125672 -0.06819399
C 0.39499858 0.47390363 -1.0853696
N 1.485703 -0.41197523 -0.68199164
C 1.0069022 -1.1959422 0.19610824
N -0.348574 -1.0581551 0.5083091
H -1.734036 0.13624443 -0.5628995
H 0.07216476 0.2161693 -2.0995548
H 0.72330326 1.5158863 -1.0927851
H 1.5796516 -1.985093 0.6747856
H -0.63733983 -1.2620096 1.4566127
