12

N -0.7980648 -0.93295735 0.015988853
C 1.196576 0.07622312 -0.47198784
C 0.44802377 -0.5409399 0.6927098
C -0.9926952 -0.042343702 -1.0333812
N 0.16393435 0.5093088 -1.299131
C 0.19709377 0.43062449 1.8126771
N 0.006829243 1.2129396 2.6427617
H -1.8514899 -0.037361726 -1.6874309
H 0.9363278 -1.4180157 1.1316661
H -1.5991617 -1.1416901 0.5955675
H 0.3115566 1.0837948 -2.1127872
H 1.98107 0.80041766 -0.28665304
