10

O -0.123744614 -1.1805755 -1.0854262
C -0.06682398 -0.48072365 0.1140398
C -1.3103108 0.37341163 0.3335786
O -1.484113 1.003992 1.3453841
C 1.1431582 0.44226682 0.14691132
O 1.9281697 0.45370507 -0.7708662
H 0.6729215 -0.926451 -1.5812324
H 0.021299805 -1.1553074 0.98236614
H -2.020123 0.3771521 -0.5184437
H 1.2395662 1.09253 1.0336885
