11

N -0.6236345 -0.7136923 -1.9398205
C -0.32347906 -0.27851638 -0.79989195
C 0.7065626 -0.8751694 0.13516171
O 0.43955338 -0.24326514 1.371144
C -0.13113973 0.9904547 1.0481882
O -0.84643155 0.81058425 -0.17152646
H -1.3314188 -0.13316247 -2.3839602
H 0.5869535 -1.9534566 0.24037194
H 1.7196999 -0.649457 -0.22631943
H -0.831001 1.281364 1.8318132
H 0.63433504 1.7643163 0.89483947
