11

N 0.97501308 -0.19100659 0.85955411
C -1.27330332 0.42186414 -0.32146617
C 0.84234989 -0.40484627 -0.58454730
O -1.02881894 0.74255807 1.06514272
C 0.09207889 0.40500796 1.68754451
O -0.11979521 0.47749101 -1.09729263
H -1.73135546 -0.57258548 -0.35517947
H 0.55876145 -1.44825665 -0.77899523
H 1.78898296 -0.17763295 -1.07955828
H -1.95421223 1.18953826 -0.68715962
H 1.85029868 -0.44213154 1.29195734
