11

N 0.52224314 -0.37310624 1.1463076
C -1.0689898 0.38519546 -0.7819824
C 1.0814513 -0.11019383 -0.18294749
O -1.5313557 0.25192577 0.57954556
C -0.74498856 -0.1672738 1.5611944
O 0.25683004 0.79935235 -0.86108875
H -1.6852753 1.1644056 -1.2288783
H 2.0652773 0.35358146 -0.08407983
H 1.1565183 -0.67106724 1.8709285
H 1.1657966 -1.0525868 -0.7412655
H -1.2175075 -0.5802326 -1.2777339
