11

C -1.1228808 0.020374408 -0.068197936
C 1.3844109 -0.4187378 0.20532662
C 0.24346356 -0.35186413 -0.6921616
O 0.26278284 -1.3645529 -1.4880991
C -0.981643 1.106526 0.90092236
N -0.778476 1.9521911 1.6633384
H 0.6540351 0.65136284 -1.1202474
H -1.8224751 0.29466084 -0.86295885
H 1.361976 -0.271389 1.2855852
H -1.5136975 -0.87125593 0.43302456
H 2.3125043 -0.7473156 -0.2565322
