11

O 1.5118846 1.3857633 -0.93912905
C -0.35711855 -0.6608109 1.1436338
C -0.4155816 0.11740586 -1.0033422
C 0.82986516 0.43894872 -0.38984495
C -1.1613536 -0.5616058 0.05964941
N 0.9043014 -0.0790416 0.8531375
H -0.42585 -0.23218237 -2.0337648
H -2.150482 -0.9921416 -0.018720318
H 0.25109527 1.4079261 -1.3323549
H 1.5419556 0.2816716 1.5476388
H -0.52871644 -1.1059333 2.1130967
