11

O -0.69305027 -1.5556053 -1.7074316
C -0.020129904 0.6433317 1.0299828
C 1.0019575 0.79508054 0.18574265
C -0.31300223 -0.7656727 -0.8746801
C -0.97227645 -0.36654314 0.4512062
N 0.8491684 -0.021542775 -0.9438346
H -1.101233 -1.2564229 1.0763535
H 1.87395 1.4297358 0.2674769
H 1.49592 -0.088635266 -1.7124081
H -1.9727381 0.032828387 0.25380945
H -0.14856577 1.1534456 1.9737827
