11

O 0.97377294 -0.6289618 -0.75487673
C -0.99777216 -0.88520664 0.30986166
C 0.71670395 0.63862944 1.0830706
C 0.3974963 -0.59528005 0.49677563
C -0.090934046 -0.047201864 -1.414699
N -1.2872528 -0.5270929 -0.9155188
H -1.7287797 -1.146172 1.0638344
H 0.17521676 0.9700302 1.9648565
H 0.08514174 1.087358 -0.32322592
H 1.7276478 1.0204351 0.97144544
H 0.028759174 0.113462806 -2.4815238
