12

C 0.77642930 -0.98081232 0.92759454
C 0.87749194 0.01136947 -0.20121293
C -0.27932761 0.74202599 -0.72959324
O 0.64379558 1.37900727 0.12300605
N -1.57629801 0.50997627 -0.17223086
H 1.63683510 -0.88317266 1.59599986
H -0.23294209 1.10863749 -1.76155801
H -0.13554866 -0.80476289 1.50075282
H 0.76280522 -2.00277544 0.53406943
H 1.71823892 -0.13501359 -0.88094729
H -2.02289829 -0.27103897 -0.64403902
H -2.16858248 1.32655933 -0.29184096
