12

C -1.3364977 1.0577145 0.14822622
C 0.7722263 -0.3963842 0.39456114
C -0.115722016 0.4748884 -0.4261601
O 0.46372962 -0.23625608 1.6307094
N 0.9963055 -1.740571 -0.12698714
H -1.1182709 2.0386188 0.5910726
H -1.677209 0.42502484 0.9729918
H -2.088092 1.2219404 -0.63325727
H 0.2413312 -2.0960743 -0.69806355
H 1.7068459 0.21754602 0.095054306
H 0.27072793 0.90089077 -1.3559642
H 1.8846254 -1.867338 -0.59218353
