10

N -0.94800634 0.19156240 0.11075712
C -0.32389651 -1.09339996 -0.26630517
C 1.15915233 -0.87435923 -0.30217871
C 1.28124176 0.47516550 0.04559146
C 0.02910225 1.06595156 0.27903257
H -1.92783576 0.39954603 0.21423764
H -0.58101773 -1.86493127 0.46702861
H -0.70165499 -1.41656486 -1.24333015
H 2.21270444 1.02757820 0.13283940
H -0.19978965 2.08945150 0.56232710
