10

N -0.37607956 0.27680954 -0.91459143
C -0.1935987 1.113962 0.19263016
C 0.13502505 0.35422477 1.3741086
C 0.27363342 -0.9719397 0.8121197
C -0.07799921 -0.9911217 -0.51260984
H -0.11886059 -1.8096435 -1.2223526
H -0.6057598 0.5546321 -1.8543463
H 0.95813525 1.1850163 0.5876501
H 0.5683458 -1.8470095 1.3790604
H -0.5628417 2.1350696 0.15833123
