10

O 0.7985708 1.9329183 -0.7535718
C 0.35556576 0.8889906 -0.3765285
C -0.9298443 0.44277355 0.3262376
N -0.50792897 -0.95659775 0.09430097
C 0.8343604 -0.56666577 -0.38893604
H -0.9599576 0.7680207 1.3751075
H -1.8707912 0.7273953 -0.15751338
H -0.49485645 -1.5244858 0.93237823
H 1.6631705 -0.7316492 0.3128667
H 1.1117109 -0.98069996 -1.3643413
