10

O 0.77699646 1.82459146 -1.37875468
C 0.27015941 0.96770583 -0.67526958
C -0.93333879 0.67613432 -0.03522161
N -0.47032265 -0.61104077 0.54847817
C 0.87089574 -0.37416054 -0.12577845
H -0.41062047 -0.65962080 1.56882608
H -1.92034482 1.08448696 0.12232103
H -0.94158028 -1.45726332 0.22222671
H 1.67177236 -0.29628388 0.61127108
H 1.08638288 -1.15454928 -0.85809877
