11

N 1.804143 -0.32635078 0.6875161
C 0.8018433 -0.05976016 -0.18506071
C -0.48830014 0.6832174 -0.23564799
C -1.6981189 0.05156207 0.3822751
C 0.24372427 -0.04112382 -1.3529341
O -1.7754824 -1.1124198 0.6981941
H 2.4527035 -1.0490899 0.4079292
H 0.18882321 -0.28229323 -2.3984091
H 1.5170857 -0.3880743 1.6534721
H -0.4968548 1.7772989 -0.20400469
H -2.5495665 0.7470338 0.54667
