11

N 1.92610547 0.22856181 -0.26831400
C -0.33246950 -0.65217795 -1.16432439
C -1.30891314 0.04957484 1.14747089
C -0.73410116 0.43469847 -0.18134431
C 0.62765873 -0.05652654 -0.53256050
O -0.86895747 -0.82624305 1.85459587
H 2.59885070 -0.46834227 -0.55622015
H -0.72913368 -1.36452408 -1.86390663
H -2.19306241 0.64689157 1.45917974
H -1.08249170 1.40528699 -0.54831947
H 2.09651434 0.60280068 0.65374281
