9

O -1.1561671 -1.2855906 -1.080408
C -0.38214007 -0.47205177 -0.3457289
C 0.4764229 -0.7914824 0.6530225
O 1.0312601 0.3925471 1.0819751
C 0.47033492 1.3315796 0.31677994
N -0.37802672 0.8893261 -0.5517474
H -1.6331918 -0.7263061 -1.7085934
H 0.7982247 -1.6933357 1.1452297
H 0.77328324 2.3553138 0.48947024
