11

N 1.0392282 0.13243142 1.7690183
C 0.37332475 0.060395274 0.5399346
C -0.97144467 0.12532717 0.2715385
N -1.0551347 0.061369497 -1.1109631
C 0.20884714 -0.025427593 -1.586844
N 1.0962825 -0.03598569 -0.6205668
H 2.0089846 -0.12769493 1.6473423
H 0.6155066 -0.42524904 2.497132
H -1.8455063 0.22689332 0.8946106
H -1.8995247 0.08793218 -1.6566676
H 0.42943653 -0.07999158 -2.6445346
