12

O 2.533014 1.2883623 0.6235742
N 1.3070983 0.76961887 1.0074649
C 0.8467304 -0.01260721 0.11943239
C -1.3310843 0.42485464 -1.5032952
N -1.4652792 -0.47813457 -0.56386024
C -0.41678643 -0.7504277 0.42890888
H 2.7632897 1.8812486 1.3485942
H -2.2893522 0.41112408 -2.061844
H -0.77141106 -0.46309748 1.4238704
H -0.23201734 -1.8336644 0.43000403
H -2.300331 -1.0497465 -0.42709574
H 1.3561288 -0.18753092 -0.8257537
