12

O 0.87139857 1.9618059 -1.2811825
N 1.0117698 1.4089485 -0.0051718038
C 0.3104179 0.36545676 0.105086125
C 0.13373472 -0.605806 1.2438396
N -0.5605945 -1.5131171 0.29574737
C -0.58489823 -0.47998106 -0.7715654
H 1.4621805 2.7236097 -1.24035
H -0.49314728 -0.21685797 2.056712
H 1.0508457 -1.0266017 1.6688762
H -1.4830561 -1.7913661 0.61012536
H -1.563641 -0.018629119 -0.9598711
H -0.15501045 -0.80746204 -1.7222458
