11

C -1.47893406 0.12616563 -1.08474146
C -0.27923274 0.02397887 -0.21639463
N 0.94657469 0.04109605 -0.49274657
C 0.56453107 -0.19706629 1.87429912
C 1.61800089 -0.09797689 0.80102597
O -0.55508312 -0.11716298 1.18174770
H -2.11222218 -0.75627846 -0.95194017
H 2.25732663 -0.99111779 0.81965373
H -1.16916355 0.20695820 -2.12562050
H 2.27749855 0.75730594 1.00023343
H -2.06929647 1.00409758 -0.80551656
