11

N -0.6249206 -0.7136461 -1.9420981
C -0.32304627 -0.27990288 -0.80019784
C 0.7077073 -0.87434155 0.13340008
O 0.4394783 -0.24207474 1.3711486
C -0.13221665 0.98934907 1.0496643
O -0.8459047 0.80728334 -0.17132273
H -1.3322598 -0.12916656 -2.3824053
H 0.5900918 -1.9539388 0.24256971
H 1.7212107 -0.6484892 -0.22748084
H -0.8336472 1.2810643 1.832093
H 0.63350695 1.7638631 0.894629
