9

N -1.08144124 0.17672241 1.09710866
C -0.70016420 -0.49913251 -0.15993191
C -1.13118971 1.02237251 -0.02884012
C 0.64153393 -0.58176250 -0.36541561
N 1.84741162 -0.71468975 -0.45351474
H -0.27867750 1.72822328 -0.04808472
H -0.28988162 0.29207529 1.74382312
H -1.36717259 -1.22283241 -0.61879847
H 2.35958127 -0.20097624 -1.16634652
