9

N 1.3350017 -1.3073183 -0.7987967
C -0.55298454 1.3831953 0.32656732
C 0.31581286 -0.68973505 -0.55504036
C -0.84827507 -0.08612758 -0.19481482
N -0.89643127 0.3464805 1.216863
H 0.52554226 1.6268747 0.3792268
H -1.7651193 -0.30526385 -0.73386604
H -0.14230503 -0.061729435 1.7849922
H 2.0287585 -0.90637636 -1.4251317
