10

N 0.22400056 1.766707 0.39156112
C -0.2020704 0.48040602 0.16218208
N -1.4034487 0.048932254 0.3581582
O -1.3348838 -1.3389251 0.10468771
C -0.07769703 -1.6989115 -0.25800556
O 0.28480402 -2.8109343 -0.5199074
N 0.64476925 -0.51376426 -0.25606918
H 0.7495214 2.1772628 -0.3685087
H -0.5341024 2.3671865 0.6866331
H 1.6491072 -0.47795922 -0.30073148
