10

N -1.1784497 0.00748019 -0.33668968
C 0.4064336 -1.4617308 0.33091682
N 0.9838997 -0.24102585 0.06060974
O -0.93142635 -1.314366 0.15388125
C 0.035925496 0.7243978 -0.23088126
O 0.92463845 -2.484615 0.6610209
N 0.27489105 1.9535933 -0.3937448
H -0.5548465 2.4832056 -0.6312887
H 1.9669166 -0.052329216 0.15126757
H -1.927982 0.38539034 0.23490825
