11

O 1.5288872 0.3598991 -0.48396698
C -0.06553903 -1.2669109 0.00020813651
N -0.077502 -0.361082 1.1888025
C 0.3248709 -0.05812048 -0.8834934
C 0.15468511 0.8136851 0.37332326
C -0.69771695 0.91729105 -0.994304
H 0.71770895 -2.0212133 0.07469866
H -0.2688237 1.8364031 -1.4212097
H -0.99989206 -0.30392495 1.6090817
H -1.0378221 -1.6971668 -0.24034792
H 0.42114362 1.7811401 0.7772077
