11

O -0.9680604 -1.8324579 1.2380831
C -0.7815724 -0.6376475 -0.860522
N 0.5537576 1.0521458 -0.10345956
C -0.5366657 -0.9363064 0.54615444
C 0.44128194 0.15467206 1.0346625
C -0.08818884 0.4836072 -1.1703092
H 0.042592157 0.66004014 1.9186493
H 1.3868029 1.5997295 -0.24989034
H -1.4221781 -1.213058 -1.5133234
H 1.4022155 -0.30336478 1.2971591
H -0.02998463 0.97263974 -2.137204
