9

O 0.19894853 1.6708008 -0.86081445
C 0.097877294 0.51002395 -0.20109972
N 0.98102444 -0.48276788 -0.28784615
N -0.690064 -1.1157379 1.0720956
N 0.44405314 -1.52321 0.55894727
C -0.90774286 0.14340052 0.69083875
H 1.0303549 1.6711808 -1.3537958
H 0.5910736 -1.5992757 -0.66409963
H -1.745525 0.7255852 1.0457741
