9

O 0.8377418 -1.7223506 -0.622962
C 0.2736825 -0.57279384 -0.21443404
N -0.65823716 0.07062109 -0.897028
N -0.90499854 1.1240448 -0.12436896
N -0.21599226 1.210792 0.98968416
C 0.558163 0.13033877 0.9669035
H 0.44275638 -1.9603672 -1.4722345
H -1.5896502 1.8150889 -0.38301116
H 1.2565346 -0.09537384 1.7574509
