11

O 1.7355144 1.3730184 -0.90323454
C -1.1096697 -0.28263074 0.36632177
N -0.5115821 0.94270414 -0.190171
C 0.76657724 0.6909873 -0.41673577
C 0.08908442 -1.225111 0.40730485
C 1.2066737 -0.6345657 -0.059810564
H -1.9136297 -0.64474076 -0.28526092
H 2.2992938 0.29999146 -0.6749752
H -0.9987281 1.8005075 -0.3918199
H -1.5287224 -0.086528115 1.3602595
H -0.034811646 -2.2336323 0.7881217
