10

N -1.199705 0.7034156 0.30884367
C 0.7200868 -0.66854566 -0.20060515
O 0.816013 1.3922987 0.9806523
C -0.06479074 -1.6170021 -0.90820336
C 0.13228318 0.43416312 0.32770497
N -0.72715694 -2.3751118 -1.4834862
H -1.7621771 0.13322066 -0.30570406
H -1.4521991 1.6762325 0.3762727
H 1.7571697 1.1689072 0.96895814
H 1.7804765 -0.84757835 -0.06443297
