10

N -1.22823 -0.7075237 -0.29626435
C -0.629076 -0.0076000867 0.69584006
O -1.1213531 0.20124665 1.7844844
C 0.7647831 0.55768263 0.3813754
C 1.3063086 0.19397649 -0.9259143
N 1.6854454 -0.120795324 -1.9703845
H -2.1421635 -1.0950058 -0.11886798
H -0.78381974 -0.88202405 -1.183569
H 0.70503145 1.6457452 0.46406016
H 1.443074 0.2142982 1.1692402
