17

C -0.18619744 -0.82776123 0.13109088
N -1.1317177 -0.22078311 0.9990836
C 0.1531079 1.4503242 -0.8205529
O 0.0740392 -2.0048716 0.24802579
N 0.37758672 0.010709822 -0.7874565
C 1.2168503 -0.56024975 -1.8268839
C -0.9888503 -0.470607 2.73295
H 0.06136582 1.86245 0.19041798
H 2.1993356 -0.07745015 -1.8291016
H -1.5211041 0.6782038 0.75108427
H -0.66657597 0.5310294 3.0402243
H 0.74958223 -0.4252891 -2.8093467
H -0.7380917 1.7180411 -1.4081856
H -0.12103323 -1.1373143 2.7149155
H 1.3333938 -1.6236168 -1.62198
H -1.8322057 -0.8291068 1.5810902
H 1.0205145 1.9262916 -1.2853754
