17

C -1.80948008 -1.12779561 0.01266192
N -0.68775952 -0.24156891 -0.23855914
C -0.94498975 1.19268376 -0.18756358
O 0.79959102 -1.98608254 -0.37884562
N 1.66943925 0.14245877 -0.43149577
C 2.18827798 0.70597757 0.92912580
C 0.53667035 -0.80298394 -0.36005192
H -2.22415783 -0.92614689 1.00657171
H -0.94162944 1.55685488 0.84555702
H -2.58661544 -0.96878304 -0.74162192
H -1.45834970 -2.15740105 -0.03225244
H 2.38437076 -0.22515861 1.48258518
H 1.26628735 1.12535714 1.36557840
H 1.47956047 0.94124149 -1.03823138
H -1.91793547 1.39240319 -0.64571801
H -0.19351127 1.75976641 -0.75064271
H 2.44023147 -0.38082262 -0.83709788
