11

O 1.2027093 0.6347024 -1.9633462
C 0.16673447 0.68496746 -1.3567659
C 0.03942689 0.16028804 0.052093167
C 0.86382854 -1.0047084 0.4385425
O 1.1939121 0.28854972 0.8719778
C -1.2525691 0.3638461 0.7748583
O -2.2869263 0.60666174 0.20733275
H -0.76352674 1.1058054 -1.7844261
H 0.49438712 -1.6836637 1.210264
H 1.5149852 -1.4205569 -0.3274871
H -1.1729614 0.2641081 1.8769567
