11

O 1.76228723 1.06024765 -1.00253263
C 0.64897934 0.61059971 -1.14439926
C -0.09053723 0.06673058 0.03359654
C -0.81319506 -1.23433957 -0.15110781
O 0.79402360 0.06176057 1.17973990
C -0.56554924 1.10421063 1.02120246
O -1.22141878 -1.89046147 0.77298517
H 0.12385430 0.58815446 -2.11189787
H 1.55919661 0.60927293 0.88603062
H -0.99554236 -1.51343566 -1.20755000
H -1.20209832 0.53726013 1.72393280
