9

O 0.8154323 -1.6769037 -0.7636282
C 0.2689149 -0.56252205 -0.24621466
N -0.30770907 -0.5132345 0.941354
N -0.6905677 0.7589825 1.023174
N -0.4077855 1.5249705 -0.008380244
C 0.21283561 0.7068966 -0.85038203
H 0.6978913 -2.3879132 -0.12126928
H -1.1689817 1.1133584 1.8356657
H 0.5799696 1.0363659 -1.8103192
