9

O 1.1804959 1.1870552 0.8162979
C 0.24070495 0.24612594 0.47322974
N -1.0989882 -0.813111 -1.200336
N -0.36761028 -0.3753624 1.4435928
N -0.8929082 -0.92544585 2.2893846
C -0.19508842 0.033172373 -0.8913457
H -1.2581943 -0.80351233 -2.2058182
H 0.34195924 0.6831249 -1.5930022
H 2.0496292 0.7679533 0.8679973
