9

O -1.66226206 0.81164139 -0.21710853
C -0.53195925 0.14832846 0.19360084
N -0.52925586 -0.34086511 1.40131852
N -0.52168687 -0.76045083 2.45857157
N 1.60029836 -0.80339276 -0.32145948
C 0.57035981 -0.15002803 -0.69702103
H 2.25108337 -0.90691708 -1.09747156
H -1.57230718 1.75263293 -0.01672152
H 0.39572942 0.24905148 -1.70370872
