9

O 0.68910265 1.4482967 0.5925045
C 1.5258001 -0.912554 0.33163863
C -1.9353497 -0.77072275 -0.03681398
C -0.852663 -0.25851652 -0.13140148
C 0.4248202 0.43047002 -0.26465386
N 1.9252359 -0.64944535 -0.7605788
H -2.8973615 -1.2296972 0.04992933
H 0.5768251 1.1244599 1.4947722
H 0.54359025 0.81770927 -1.2753966
