11

N -1.29841298 -0.24042042 -0.38223638
C 0.86090278 -0.18234013 0.43825962
C 0.46915378 1.13374823 -0.20645050
C -0.96066503 0.97994687 -0.74077429
C -0.29582074 -1.04682749 0.29832205
O 0.85105566 -1.28331268 -0.48342453
H 1.13813441 1.41209659 -1.02665755
H 0.48938469 1.96262523 0.51323167
H -2.20110794 -0.63258520 -0.61804357
H -0.62905544 -1.84155786 0.95753063
H 1.57643085 -0.26137309 1.25024309
