10

O -0.5668971 -1.8787444 -0.7864891
C 0.21152464 -0.98876315 -0.046922974
C -0.31596088 0.42119396 -0.14722896
O -1.291458 0.6953668 -0.81408083
C 0.40353996 1.5222752 0.6102066
O 1.3769355 1.314913 1.2864892
H -1.2652727 -1.3581363 -1.2071381
H 0.24028714 -1.2683281 1.0172286
H 1.2581087 -0.9851574 -0.39135545
H -0.050807323 2.5253806 0.47929105
