9

O -0.008826584 1.9890175 0.479703
C 1.128785 -1.4319267 0.28329408
N -1.5446745 0.6779692 -0.69494456
O -1.849042 -0.399247 -1.1333576
C 0.47681236 -0.30910042 0.19049829
C -0.2852636 0.7477691 0.023156721
H 0.9616266 -2.1136718 1.1159314
H 1.8645024 -1.7177083 -0.4666066
H -0.74391985 2.5568988 0.20232542
