10

O -1.8655871 0.0341836 0.23125257
C 0.0068377424 -0.7173488 -0.8210045
C -0.783644 0.64978725 0.80248314
C -0.8166181 -0.9397835 0.5284877
O 1.5306728 0.9196232 0.32216653
C 0.3175129 0.4835745 -0.02796884
H -0.83796006 1.1857287 1.7433274
H -0.64876616 -0.64082134 -1.685015
H 2.2137523 0.37319043 -0.099483065
H 0.8837996 -1.348134 -0.994246
