10

O 0.33254358 -0.5126796 -2.23608
C 0.14832467 -0.32455453 -1.0689082
C -0.9080608 0.48507577 -0.2644207
C 0.009105793 0.26822105 0.94160837
O 0.07566899 -1.1293664 1.136204
C 0.9755403 -0.5533237 0.1879867
H -1.9096195 0.06004935 -0.16952062
H -0.96503365 1.5131943 -0.6338672
H 0.20480935 0.92055476 1.7840289
H 2.0367212 -0.727171 0.32296845
