10

O 1.69711103 -0.14003808 -0.62662656
C -0.78816125 0.21017079 -0.72340485
C -0.99995949 -0.72181650 0.55535515
C 0.26461850 -0.01847563 1.26883261
O -1.02355369 0.36334492 1.53472464
C 0.53329099 0.21337259 -0.07425532
H -1.41356145 1.09864110 -0.68239055
H -0.77466762 -0.26787854 -1.70740253
H 0.93206647 -0.41235142 2.02695296
H 1.57281645 -0.32496923 -1.57178585
