11

O -1.2856793 1.6345192 8.570981e-05
C 0.24358737 -0.17010288 0.92033404
C 0.82792294 -0.8656096 -0.3896687
N 0.17290394 0.20379494 -1.1987289
C -0.33437675 0.75625145 -0.09147688
O -0.9498858 -0.58590597 1.3425965
H 1.008264 0.15846461 1.6471666
H 0.36842826 -1.8423996 -0.5390082
H -0.32952523 0.096376054 -2.0720198
H 1.9123251 -0.87929875 -0.52118504
H -1.6339648 1.4939106 0.9019045
