10

N 0.901346 1.9272766 -1.8469838
C 0.3515434 1.0791943 -1.2853464
C -0.3273383 0.022078415 -0.57280964
C -0.48218593 0.12052764 0.9284846
C 0.46568483 -0.8772785 0.34904954
H -1.1445277 -0.43102172 -1.127156
H -1.4197477 -0.22950561 1.3455399
H -0.067248255 0.9983518 1.4130762
H 0.19281812 -1.9266777 0.35968152
H 1.5296556 -0.6829454 0.43646428
