10

N 0.63991365 1.59569267 0.76600438
C 0.15669624 -0.13155363 -0.45579099
N 0.76779124 1.08400751 -0.42106153
N 0.20045523 -0.91942366 -1.60070908
N -0.05368491 0.73333806 1.49244999
C -0.38538987 -0.38065307 0.78418124
H -0.26216455 0.95678508 2.45293444
H 0.55489129 -0.38435567 -2.38310395
H -0.68204280 -1.34878755 -1.84028219
H -0.93646546 -1.20504976 1.20537753
