10

N 0.9770452 1.4187107 0.5569424
C 0.2580114 0.31895643 0.10032503
N 0.24571297 -0.024752825 -1.1815981
N -0.47263327 -1.1423712 -1.1860638
N -0.9374464 -1.5493019 -0.029908264
C -0.48635924 -0.63538563 0.8242865
H 0.5033291 1.9478611 1.2748727
H 1.2561712 2.0220633 -0.20459752
H -0.6452615 -1.653788 -2.0355282
H -0.6985694 -0.701992 1.8812691
