11

N -0.5545868 -1.3828157 -0.2524025
C -0.07496005 -0.054488342 1.5963672
C -0.5461315 -1.2444557 1.1928525
N 0.71647453 1.6653475 -1.4400622
C 0.33480918 0.7806776 -0.6163355
C -0.1663814 -0.5084258 -1.1011363
O 0.36091605 0.947618 0.73709905
H -0.20220906 -0.6912433 -2.1705446
H 0.026119709 0.27733153 2.622432
H 1.032437 2.5007403 -0.94400847
H -0.9264877 -2.290286 0.37573913
