11

N -0.985502 -0.6954716 0.87256455
C 0.23295078 -0.27589014 1.0530696
C -1.8021187 -0.60728806 -0.28963673
N 2.1234932 0.8003951 0.14308076
C 0.9375348 0.3858732 -0.030775966
C -1.0765499 0.0120983645 -1.2603277
O 0.23107266 0.5011259 -1.1807595
H -1.4482073 0.2129039 -2.25826
H -1.4350911 -1.1507273 1.6585046
H 2.4837782 1.2335131 -0.7080143
H 0.73863935 -0.41653252 2.000555
