10

O 0.77153987 1.3892057 1.3468982
C -0.7927521 -0.6083775 -1.3016876
C 0.39312974 0.41695616 0.51226926
N 0.8315205 -0.7849685 0.42818934
C 0.09199481 -1.380958 -0.5953989
N -0.6251485 0.6838853 -0.39482376
H 0.27426744 -2.4267066 -0.812551
H -0.8419113 1.611007 -0.7372767
H 1.4863546 1.0312723 1.8916925
H -1.5889953 0.06868379 -0.33731124
