10

O 1.94481 0.47658643 -0.2701014
C -1.4358974 -0.850368 0.37373045
C 0.6225665 0.340307 -0.15230682
N 0.15020214 -0.95701563 0.33434314
C -1.5247889 0.4219298 -0.073522314
N -0.31058845 1.1429548 -0.3918474
H 2.1068609 1.374201 -0.59356177
H 0.4076154 -1.7298131 -0.27943227
H -2.451953 0.9650048 -0.21596746
H 0.4911726 -1.1837872 1.2686658
