10

O 0.214753 2.210104 0.39139074
C 0.119361244 0.8822654 0.16198719
C -1.0026964 0.19533396 -0.21402095
N -0.5700521 -1.1174374 -0.31181234
C 0.74332654 -1.1404079 0.0009176854
N 1.1955107 0.059925366 0.2943682
H 1.1290557 2.374173 0.6536935
H -2.0192816 0.4933351 -0.4116547
H -1.1368346 -1.9078825 -0.5675896
H 1.3268573 -2.049409 0.0027203576
