11

C 0.5309709 1.6317418 -1.0968636
C -0.28889188 -1.4433936 0.6313583
O 0.25806245 -0.16703007 0.25066712
C -0.0888231 0.27128634 -0.93757325
O -1.312289 -1.283145 1.5472912
H 1.1269633 1.996615 -0.2503763
H -0.29105705 2.3281302 -1.3002402
H 1.137477 1.6184431 -2.010645
H -0.7009098 -1.9106121 -0.2634932
H -0.9313793 -1.0295361 2.396875
H 0.55987656 -2.0124998 1.033
