10

O -1.3061833 -0.88539845 1.7142771
C 0.58535796 -0.9913299 0.1370696
C -0.5628532 -0.4855561 0.8451592
N 0.6522026 0.3802167 -0.7037498
C -0.52621317 0.8495856 0.06026819
H 1.4854124 0.019424217 0.01307652
H 0.78451115 -1.9358023 -0.35312924
H -1.3904719 0.94228345 -0.6035406
H 0.6429061 0.32229415 -1.712649
H -0.36466858 1.7842828 0.6032179
