10

O 1.491408 1.5906892 -1.0399102
C 0.8165544 0.6925657 -0.5643438
C 0.757168 -0.69657314 -0.5208304
N -0.467963 -0.7563377 0.32445326
C -0.46724728 0.7627763 0.338099
H -0.3616862 -1.1708807 1.2528975
H -0.34051916 1.1459284 1.3518442
H 1.2535905 -1.5712975 -0.9129213
H -1.3056797 -1.154134 -0.10669033
H -1.3756255 1.1572635 -0.12259781
