11

O -1.5011703 -1.0470322 0.38080293
C -0.16675653 -0.7717292 0.06744641
C 0.027779121 0.23594247 -1.0920166
N 0.7604286 1.0799439 -0.14811368
C 0.50485003 0.30320507 0.9475927
O 0.6780966 0.44116038 2.131602
H -1.5612336 -1.1298159 1.3402637
H 0.4382738 -1.6818273 -0.03977604
H 0.6247845 -0.11352464 -1.9364909
H -0.9201503 0.66064 -1.4312115
H 1.1150981 2.023037 -0.2200995
