11

O -1.73550500 -0.08943941 0.83577536
C 0.28497669 -1.14836700 0.14825312
C -0.49949902 -0.09889390 0.23328594
N 1.07257197 -2.09794252 0.24264385
C -0.14217696 1.24256960 -0.34790001
O 1.15727963 1.28360434 -0.88275676
H -1.88358233 -0.93102213 1.28264479
H 1.10049275 -2.67943624 -0.59606292
H 1.77139285 1.03839599 -0.17948320
H -0.82441197 1.47790916 -1.17156855
H -0.30153859 2.00262170 0.43516791
