11

C 0.97366965 -1.1294961 0.4508458
C -1.3167845 1.767351 -0.7203131
C -0.31202006 -0.35285112 0.20427206
O 0.98315346 1.4171852 -0.80967194
C -0.08047956 0.9720937 -0.4708708
N -2.276754 2.3775213 -0.9113682
H 1.6590579 -0.56358516 1.0879477
H 0.7464381 -2.079022 0.94399554
H -1.0162731 -0.9159148 -0.42521077
H -0.85165673 -0.15118925 1.1386534
H 1.491649 -1.342093 -0.48827964
