11

C 1.36415584 0.41990104 0.62435382
C 0.10110768 -0.37790810 0.33249087
C -0.77357291 0.26323680 -0.71095283
O -0.54544659 1.29049651 -1.29138693
C -2.02663448 -0.48463231 -1.01694961
N -2.99392161 -1.06807092 -1.24998667
H 1.97700206 0.52991530 -0.27440812
H 1.12109994 1.42293178 0.98596721
H 0.33078614 -1.39380168 -0.02031179
H -0.51269589 -0.51259224 1.23251815
H 1.95811954 -0.08947636 1.38866532
