9

O -1.082318 1.7857406 -0.9431164
C 0.6179167 -0.35466728 1.0959935
N -0.31905636 -0.21703087 -0.89871025
C -0.45613864 0.9210949 -0.25384873
C 0.3776078 -1.0573794 -0.0322602
O 0.07781903 0.92958933 0.9579323
H 1.1130993 -0.56172985 2.0290298
H -0.97662944 0.6266817 -1.6793021
H 0.6476994 -2.072299 -0.27571794
