12

O 1.3038472 0.08025236 1.0804754
C 0.43960938 0.8610563 0.30301636
C -0.0122977495 0.23037519 -0.99292225
O -1.1360356 -0.9395034 0.8273084
C -0.95305014 0.293667 0.187234
O 0.55687034 -1.0197486 -1.2461588
H -1.8296213 0.93522406 0.16084726
H -0.4311528 -0.97896975 1.4981042
H 1.6695766 -0.5809317 0.47057396
H 0.59780186 1.9322215 0.38957158
H -0.17753571 0.84261656 -1.8751433
H -0.028012194 -1.6562595 -0.802907
