12

O 1.0451633 1.0982473 -1.0119443
C 0.6018622 1.0154278 0.3175942
C -0.4463211 -0.089856096 0.44755295
O -1.4948093 0.18445751 -0.44323713
C 0.15590543 -1.4355721 0.11159213
O -0.33478308 -2.1418843 -0.73503226
H 0.23959307 1.1381881 -1.548064
H 0.16247754 1.958918 0.669466
H 1.4738489 0.79300433 0.9439542
H -0.8049361 -0.13405567 1.4900848
H -1.6423373 -0.6398903 -0.9370325
H 1.0443364 -1.7469845 0.69506544
