12

O 1.42337567 -0.11039177 0.18158947
C 0.50813422 0.58961698 1.05257707
C -0.53671206 0.67871162 -0.06960012
O -1.79364940 0.11934386 0.15733449
C 0.45773548 -0.20983450 -0.85220724
O -0.03184784 -1.51228825 -1.02679953
H 0.83624867 0.14281428 -1.81703801
H -0.65805045 1.68373171 -0.48105386
H 0.93622968 1.52924877 1.41470931
H 0.19084677 -0.03354078 1.89726340
H -1.72550238 -0.81478744 -0.10274719
H 0.39319161 -2.06262442 -0.35402827
