12

O 1.0988747 0.60593927 -0.6853701
C -0.24546707 -0.5805062 0.6057512
C 0.7931479 0.5368549 0.7489166
O -0.87108415 0.21895367 -1.5912995
C -0.027811106 -0.5447413 -0.9353027
O -1.555822 -0.25305107 0.94641364
H 1.7032253 0.2657053 1.2853236
H -1.9194863 0.16336139 0.14637817
H 0.39147267 1.4873395 1.1093123
H 0.034270044 -1.5195229 1.0933683
H 0.42936322 -1.399822 -1.44508
H 0.16931704 1.0194893 -1.2784117
