12

O 1.0430113 1.0985653 -1.0120004
C 0.6013188 1.0161899 0.31876346
C -0.446619 -0.08827258 0.4486717
O -1.4931858 0.18766454 -0.44519824
C 0.15741149 -1.4375414 0.1118496
O -0.3294513 -2.1451323 -0.73811483
H 0.23805968 1.1348034 -1.5506222
H 0.16240224 1.9598715 0.6710546
H 1.4739496 0.7930889 0.9434996
H -0.8057172 -0.13255364 1.491302
H -1.6440245 -0.63762605 -0.93665934
H 1.0428447 -1.7490579 0.6974537
