12

O 0.85946956 1.88198671 -1.02395031
C -0.04241992 1.76254419 0.03275559
C -0.00030217 -1.96728218 0.01852569
C -0.32619735 0.32257440 0.37697468
N 0.25020596 -0.57786075 -0.29711931
H -0.39670422 -2.46716440 -0.87143638
H -0.99788815 2.25212669 -0.21250994
H 1.08473651 0.97078301 -1.27496722
H 0.34469168 2.26291793 0.93441504
H -1.02660328 0.12028623 1.19854151
H -0.70075754 -2.11147873 0.85499509
H 0.95176885 -2.44943308 0.26377568
