12

O 0.1987089 2.2722068 0.3558474
C -0.5841786 0.008399941 0.10598888
C 0.9669924 -1.6504196 -0.45998177
C -0.9218527 1.444536 0.41585794
N 0.61641085 -0.27799082 -0.16602628
H 1.7311217 -1.9785537 0.25240204
H -1.6920003 1.7781659 -0.29711437
H 0.9390989 1.6874275 0.12367788
H -1.3818445 1.4826837 1.4159436
H 0.11389001 -2.344183 -0.41503626
H -1.4005023 -0.7262008 0.12692676
H 1.4141558 -1.6960715 -1.4584857
