11

N 0.84049594 1.790824 1.0366883
C -0.3428936 -0.68639636 -0.69313157
O -0.8532588 0.083041795 0.21734127
N -1.2524649 -1.3259889 -1.4248452
C 0.43526033 0.49610806 0.9769027
N 1.4658067 0.14511879 0.112520814
H 1.3822501 0.77254033 -0.68634486
H 0.36689612 -0.10596615 1.8870976
H -0.9443373 -1.9298017 -2.1679184
H 1.1475483 1.9823233 1.9912691
H -2.245303 -1.2218034 -1.2495797
