10

O -1.31958968 -2.12292544 0.58537666
C -1.13233714 -0.96174627 0.39817670
N -1.18303009 0.27340899 0.91403560
C -0.64721002 0.12853459 -0.48942953
C 0.82409204 0.29746112 -0.64124868
N 1.53531575 0.43759648 0.39826118
H -1.28177725 0.54329483 -1.26911954
H 1.19511068 0.29667730 -1.67320083
H 2.52402166 0.51709542 0.16608043
H -0.51459620 0.59060305 1.61106810
