10

O -0.85308015 1.6059967 -1.393898
C -0.08910378 0.8213254 -1.0013769
N 1.1255223 0.3278699 -0.8370649
C -0.3067114 -0.4949954 0.8813168
C 0.80473554 0.31738275 0.59495854
N -0.9335411 -0.9541763 -0.17319971
H -0.62738895 -0.6356246 1.9160148
H -1.8778511 -1.2735544 0.01338028
H 1.3054386 -0.5754063 -1.2681923
H 1.4519801 0.8611825 1.2680615
