11

N -0.91307366 1.7637223 0.164299
C 0.6607514 -0.046168204 0.30738324
C 0.6985875 -2.012016 -0.862395
C -0.59862065 0.49824998 -0.28183976
C 1.0213346 -1.3674288 0.31341213
O -1.328695 -0.07536617 -1.0752695
H 1.8088655 -1.734112 0.97671854
H -1.8269383 2.094727 -0.10325589
H -0.5099186 2.134599 1.0060436
H -0.33233905 -1.9495535 -1.2154067
H 1.3200461 0.6933465 0.77031046
