10

O 0.602843 -0.19829677 -1.8747452
C 0.7559776 0.6374973 0.47440764
C 0.2392924 -0.060331028 -0.5942588
C -0.01375985 0.28104773 1.6196507
N -0.85912013 -0.72757 -0.18825105
N -1.0120258 -0.5883869 1.1722037
H 1.4092815 0.31181246 -2.025807
H 1.6099825 1.3002402 0.45449775
H -1.3903496 -1.4014963 -0.7140226
H -1.3421214 0.44548354 1.6763244
