10

O 0.56878376 1.5676875 1.0789374
C -1.1581199 -0.007862558 0.21022688
C 0.08513375 0.54871684 0.3515229
C -1.0731122 -1.1342272 -0.6826894
N 0.23632757 -1.1789635 -0.95808953
N 0.9779475 -0.10535045 -0.44687605
H -0.15590823 1.922576 1.6120709
H 0.6560628 -1.6997608 -1.7108887
H -2.064297 0.35871482 0.6786192
H 1.927182 -0.2715305 -0.13283335
