11

O 1.1991931 0.6369094 -1.9645897
C 0.1615222 0.68471515 -1.3575875
C 0.040949423 0.15996143 0.05137474
C 0.86593395 -1.0049865 0.438672
O 1.1982969 0.2888029 0.86709166
C -1.2516348 0.36402288 0.7778536
O -2.2879717 0.60178715 0.20989236
H -0.76906544 1.1037705 -1.7828928
H 0.50081307 -1.681479 1.2112045
H 1.5142865 -1.4236953 -0.32973567
H -1.172323 0.27019143 1.8787166
