11

O 1.56949320 0.05797056 -0.62765700
C -0.79177044 0.49607533 -1.15040175
C 0.27284808 0.11320577 -0.15539603
C 0.97250989 -1.16403673 -0.17005150
O 0.15126016 0.78906339 1.08908628
C -1.02870479 0.62481498 1.65650195
O -1.02531344 -0.16621157 -2.12611215
H -1.32072525 1.43616264 -0.90858103
H 1.37804859 -1.54292693 0.76517808
H 0.73219957 -1.88163083 -0.95185123
H -0.90984535 1.23751344 2.57928416
