11

O 0.51984413 0.10809809 1.21156086
C -1.01322726 -1.09162682 -0.60841186
N -0.23541454 0.10285342 -0.91960384
C 1.20130009 0.55452719 2.24000158
C 0.54820557 0.77328648 -0.06048976
O 1.18701953 1.76618161 -0.26238959
H -0.36518857 -1.88555621 -0.22756828
H -1.79132436 -0.88300736 0.13113053
H -1.48228896 -1.43190764 -1.53410777
H -0.29003340 0.51480912 -1.83921971
H 1.72110827 1.47234157 1.86909766
