11

O 1.2294605 1.0164758 -0.24816486
C -1.0569928 -0.23672873 -0.2440043
N -0.1210628 -0.42039552 0.8218455
C 1.0573976 0.28198025 0.9040024
C 0.60447353 0.6045649 -1.3907815
O 1.8095187 0.3170317 1.8357611
H -1.2935323 -1.1608794 -0.774334
H -0.42449087 -0.8175715 1.6981854
H 0.8394079 -0.46295837 -1.556858
H -1.9658045 0.2932297 0.06772056
H -0.67837477 0.58525115 -1.1133724
