11

N -0.69067425 -0.04779792 1.4766057
C 0.4907143 0.06004312 -0.35007617
C 0.6745611 0.32636577 0.97769904
N -1.621283 -0.4827061 0.43160808
N 1.4690356 0.11671916 -1.368204
C -0.85933113 -0.4072052 -0.60892797
H 1.194573 0.72369266 -2.1312776
H -1.1164025 0.7419698 1.9633085
H 2.333517 0.46577692 -0.9705167
H -0.61069775 -0.8062729 2.1556923
H -1.2640123 -0.6905852 -1.5759114
