11

O -1.5682579 0.061391752 1.8029116
C -0.6991875 0.016287025 0.7848021
N 0.39991087 0.71223867 0.6646088
C 0.9204083 0.3006732 -0.540007
O 2.0789232 0.81536734 -0.9985483
C 0.13815965 -0.63924164 -1.1444883
N -0.92744905 -0.81197727 -0.24943145
H -1.2183938 0.70647466 2.4311967
H 2.3743074 1.4495327 -0.33238462
H 0.21832153 -1.1819911 -2.0709257
H -1.7167423 -1.4287555 -0.34773412
