11

O -1.76904440 -1.46202220 0.97319885
C -1.29050432 -0.24541342 0.78020871
N 0.87372165 0.57080718 -0.11030013
C -0.17750476 0.62431687 0.86353886
O 2.00422208 -0.11920942 -1.79354157
C 0.96692357 -0.42708447 -0.98375696
N -1.61262618 0.90562389 0.37871285
H 0.12178968 1.09342330 1.79985994
H 1.49657017 1.37767039 -0.15918114
H 2.07959817 -0.84183773 -2.42749136
H -2.69314527 -1.47627456 0.67875166
