11

N -1.6700898 -0.9009112 -1.891538
C 1.6622375 0.1462798 0.434725
C -0.44323695 0.029074492 0.0065538343
N -0.39209953 0.62503284 1.1597812
C -1.6385977 -0.320181 -0.7620039
C 0.96077055 0.70704293 1.4488353
O 0.77766633 -0.29260796 -0.49958622
H -2.5722756 -0.033698466 -0.27236956
H 1.3280363 1.1597501 2.3584437
H -0.72105664 -1.1063203 -2.20908
H 2.7086456 -0.01346122 0.22623913
