9

O 2.3632889 -0.4013764 0.3943824
C -1.0352541 -0.365402 1.0095336
N 0.378453 0.043672577 -0.75352186
C -0.93943083 0.07097093 -0.33568612
C 1.1754708 -0.29743665 0.3326961
O 0.29809007 -0.4955296 1.3791201
H -1.7702689 0.1714704 -1.0250123
H 0.7706093 0.3700327 -1.6196191
H -1.2409582 0.90359807 0.61810696
