9

O -0.93017995 -1.1290319 -1.9714575
C -0.40806067 -0.6199963 -1.0173912
N -0.89957 0.31921333 -0.13888508
C 0.0643802 0.6265603 0.820417
C 1.1293089 -0.12462217 0.5261716
O 0.86831355 -0.89125574 -0.5852643
H -1.8239672 0.7055519 -0.22245288
H -0.10173643 1.3443379 1.6082143
H 2.1015115 -0.23075747 0.980648
