9

O 0.53019685 0.987441 1.1185842
C -0.72697526 0.64322084 1.2432679
N 0.26583228 -0.35274833 -0.62639254
C -0.99170154 -0.28579855 0.07391239
C 1.2051774 0.39913788 -0.022543589
O 2.3518517 0.6179489 -0.25519538
H -1.3191864 -1.2590936 0.45728818
H 0.48696455 -0.8803308 -1.4532416
H -1.8021595 0.13022289 -0.53567946
