11

C 0.7675519 0.5857936 -0.3290627
N 1.2915676 -0.17879224 0.7766617
C 1.0292169 -1.2723815 1.2199047
O -1.1904749 -0.72487235 -0.573878
C -0.75158423 0.5993748 -0.35195607
O 0.91804206 -2.2981844 1.7779452
H -1.0782607 1.2744352 -1.1573184
H -1.1219002 0.99128896 0.60567534
H -2.146569 -0.76167935 -0.45498964
H 1.1376325 1.6116394 -0.24044722
H 1.1447779 0.17337798 -1.2725348
