11

C 0.33923894 0.27418768 -0.4134516
N -0.02573025 -1.1319338 1.4443389
C 0.74923074 -0.15806746 0.98420167
O 0.0891056 1.6488035 -0.48163903
C -0.9387126 -0.5469178 -0.54056513
O 1.6299472 0.3047492 1.707465
H -1.8244038 0.058291804 -0.34285933
H -1.0219724 -1.1517 -1.4449788
H 1.1018205 -0.03907871 -1.1414504
H 0.8380971 2.0899804 -0.05548219
H -0.9366211 -1.3483149 0.2844212
