10

O 0.68957955 1.9993913 0.8550874
C -1.06607 0.28396863 0.24828404
C -0.4300995 -0.65092564 -0.7971258
C 0.31421253 0.94843024 0.42029074
O 0.8310717 -1.333857 0.29914784
C 0.9514715 -0.12505604 -0.45267552
H 0.16933922 -1.8792281 -0.41323808
H -1.7774822 0.97801524 -0.21288815
H -1.5311816 -0.19190483 1.1139191
H 1.8491586 -0.028833764 -1.0608017
