12

N 0.50630814 1.3130186 0.04350742
C -0.6343045 0.91984195 -0.6536008
C -0.59090614 -0.592536 -0.52078676
C 1.3749964 0.3481157 0.21455231
N -1.9332544 -1.4595301 1.6074773
C -1.3519403 -1.1101397 0.67045456
N 0.86001635 -0.79429555 -0.37104344
H -1.5450311 1.4433161 -0.38402647
H -0.96405035 -1.1348234 -1.3963792
H 2.4043078 0.4740013 0.5159613
H 0.7100641 2.2753448 0.2671809
H 1.1637937 -1.6823138 0.0067029395
