11

O -0.97012201 -0.06823307 0.67161189
C 0.23180812 -0.17343473 1.44864998
N 0.16971445 -0.01945491 -1.39317521
C -1.02790863 -0.29640022 -0.63844404
C 1.06881929 0.94638392 -1.28555096
O -2.01021025 -0.69221017 -1.19566253
H 0.55698331 0.82794358 1.74277321
H -0.03452042 -0.74432255 2.33867115
H 0.18022893 -0.58698040 -2.23651730
H 0.80939620 1.49575951 -0.35330684
H 1.02581138 -0.68905095 0.90095047
