11

N -0.7889747 1.8170156 -0.11652135
C 0.09523731 -0.37630045 0.13168384
C -0.741521 0.734177 0.5606709
N 0.8812278 0.8926078 -1.8911312
N 0.18557405 -1.5914361 0.83597875
C 0.69901377 0.03224267 -1.0220536
H -1.2952794 0.54012483 1.4869986
H 1.4590502 -0.3687675 -1.8542252
H -0.18107286 -2.39547 0.34641385
H -1.4080865 2.5064325 0.29602802
H 1.0948315 -1.7906262 1.2261575
