10

O 1.2407904 0.5124702 -1.7521932
C 0.47225338 0.08733445 -0.7371891
N -0.06340638 -1.0914698 -0.6085729
C -0.7494898 -1.0249193 0.5909734
C -0.61217076 0.20199423 1.1641326
N 0.19076505 0.9241946 0.28544304
H 1.3037875 -0.23982027 -2.3570294
H -1.3022416 -1.8771657 0.9619065
H -0.98864746 0.63256615 2.078958
H 0.50835985 1.8748152 0.37357116
