10

O 0.85190318 1.77309413 -0.13415448
C 0.17613967 -0.52024618 -0.53297499
N -1.15763616 -1.08549078 -1.01153565
C -0.54104136 -1.69869613 -0.10780185
C 0.12776352 0.71286124 0.30711409
N -0.53884589 0.73436241 1.38152277
H 1.01047698 -0.60587980 -1.23100606
H -0.64717356 -2.56183431 0.53152183
H -0.48539753 1.65604134 1.81496411
H 1.20381133 1.59578783 -1.01764968
