10

O -0.7498649 -0.85467523 1.8731664
C 0.2201854 1.2329671 -0.70875686
N 0.57168454 -0.04848999 -1.3100774
C 0.2525391 -0.9185058 -0.43006328
C -0.31220707 -0.24105752 0.76384306
N -0.33750185 1.0224828 0.6115985
H 1.1137354 1.8632907 -0.65092075
H 0.38631684 -1.9891847 -0.5728665
H -0.6449141 -1.8124336 1.7810558
H -0.4999734 1.7456063 -1.3569789
