11

C -0.080329575 0.04246651 0.08584078
C -0.17288159 -0.46555 1.8842084
C 1.0001105 -0.26962507 -0.9322091
O 0.46646106 0.6186823 1.2507948
C -1.2228323 0.80859053 -0.41670316
N -2.1105752 1.4085362 -0.8485465
H 1.487584 0.66545284 -1.2217541
H -0.4513813 -1.0088196 0.45384884
H -1.2336193 -0.12304741 2.02617
H 0.581084 -0.75145787 -1.8185358
H 1.7363799 -0.9252287 -0.4631139
