11

C -0.9882162 0.89318645 -0.1152946
C 0.05772253 -0.19637583 -0.17288053
C 0.6763113 -0.74194866 1.0446678
O -0.31301215 -1.4662231 0.33357888
C 0.83553314 -0.24437027 -1.4094015
N 1.4440196 -0.24502575 -2.3919356
H -1.7187948 0.76636475 -0.9192171
H -1.511623 0.84749544 0.8441427
H -0.5238416 1.8785297 -0.22130658
H 1.6803287 -1.1563464 1.0034806
H 0.36157265 -0.33528617 2.004166
