11

C 0.0332845 0.8144159 -1.401821
C 0.02273383 0.23962092 -0.047628995
C 1.028703 -0.8841336 0.11733047
O -1.3107802 -0.31670752 0.18394667
C -2.1664562 0.2053277 1.002866
N 0.06528052 1.2586571 -2.4659562
H 0.8116075 -1.6896607 -0.5881078
H 0.17469566 1.0437549 0.68181854
H 2.0412621 -0.51245075 -0.06434076
H 0.96915346 -1.2733423 1.137478
H -1.669484 1.1145183 1.4444152
