11

C -2.18711796 0.97416160 -0.09463807
C 0.10864462 0.18296904 -0.12215654
C 0.62433874 -0.86990082 0.84092935
O -1.33913711 0.00756179 -0.24277432
C 0.68438678 0.04830776 -1.46927341
N 1.15598763 -0.06755529 -2.51566058
H 0.37940947 -1.86880953 0.47236652
H -1.58075992 1.89774315 0.12422641
H 0.28722807 1.20170272 0.24130901
H 1.70957625 -0.78363332 0.94697639
H 0.15744360 -0.72254691 1.81869532
