10

C -1.03468073 0.02921939 0.71068004
C 0.85866829 -0.01918635 -1.06937046
O 1.09136304 1.02129059 -0.13332641
C 0.41047452 -0.14041090 0.31799293
H 0.12635909 0.20881283 -1.84441462
H -1.53202886 -0.94481526 0.77164116
H -1.56161119 0.64897937 -0.02038860
H 1.01123187 -0.76216796 0.98454554
H 1.74517071 -0.55373485 -1.40774820
H -1.11494655 0.51201318 1.69038874
