10

C 0.26407868 0.041135624 0.44959354
C 0.5285039 -1.249163 -0.18327883
O 1.3636878 0.4467307 0.9851795
C -0.62658435 1.0164634 -0.34461218
H -0.19372945 -2.057722 -0.16606832
H -0.8698131 1.8643036 0.3007898
H -1.5514377 0.54371536 -0.6910486
H -0.0685845 1.3846221 -1.2097366
H 1.5751696 -1.502673 -0.36680615
H -0.42129076 -0.4874125 1.2259878
