9

O -2.5736852 0.67161375 0.2927911
C -1.6280103 0.09884055 0.7647107
C -0.29835984 0.047369488 0.096014634
N 0.7623124 -0.5438364 0.5447011
C 1.6581179 -0.2791427 -0.45699087
N 1.1797048 0.42053357 -1.4431609
O -0.1291726 0.642987 -1.0787299
H -1.6554732 -0.43969968 1.7283896
H 2.684566 -0.61866564 -0.44772545
