9

O 0.18404755 1.3519906 -1.3276526
C -1.8193363 -1.5053613 -0.4206023
C -0.5621437 -0.03633018 1.2537295
N -1.2453843 -0.82944185 0.34949744
C 0.9951951 0.48741943 -1.1728945
N 0.63436496 0.3624674 1.1357219
O 1.2636275 -0.15869442 -0.018202279
H 1.6580966 0.059300724 -1.9388775
H -1.1084675 0.26864967 2.1392806
