11

N 1.3014649 0.09604242 1.422348
C -0.23550358 0.19761597 -1.6585758
C -0.92435926 -0.27725288 0.35055044
N 0.84035677 0.36873883 -0.8889726
C 0.42855808 0.0765372 0.35962808
N -1.3809811 -0.12260935 -1.0367701
H 0.9032151 0.30669534 2.323678
H -1.653445 -0.3335247 1.1482098
H -0.19860122 0.29917166 -2.7362385
H 2.1535065 0.6014147 1.2295098
H -1.2342114 -1.2128291 -0.51336694
