11

N 0.86474382 0.49611714 1.16388026
C -0.40360835 0.95334784 1.22022473
C 0.95223449 -0.34559778 0.06345272
N -0.80220286 -1.03433378 -1.58259730
C -0.30531173 -0.32572210 -0.48580262
N -1.13966013 0.48506104 0.23672608
H -0.74377949 1.62655950 1.99600020
H -1.71097033 -0.67248482 -1.84040127
H 1.60954903 0.71813311 1.80168371
H -0.18291641 -1.03522627 -2.38057333
H 1.86192186 -0.86585421 -0.19259322
