9

O -1.5826206 -0.14208315 1.6014762
C -0.75353 -0.21311669 0.7324378
N 0.55225956 -0.94161224 -0.7752011
N -0.35444993 -1.382238 0.06360978
C 0.0802122 0.92493707 0.120204605
N 0.90902865 0.2733594 -0.8748193
H 0.9928495 -1.6276397 -1.3804015
H 0.7058848 1.4241402 0.8654952
H -0.54963404 1.6842532 -0.35280162
