9

O 0.35184686 -2.19272902 0.39717117
C -0.66466042 0.04254584 0.65788151
N -0.33581718 1.24357277 -0.08438472
N 0.57636466 0.83864298 -0.87008200
C 0.27093818 -1.03412088 0.08293288
N 1.03118551 -0.39082401 -0.90784136
H 0.98973663 1.50339005 -1.51680887
H -0.50083967 0.20215394 1.72737487
H -1.71875459 -0.21263181 0.51375652
