9

O -0.26789993 2.1416345 0.42109358
C -0.06034662 0.87485355 0.18182327
N -0.38589984 -1.3676155 -0.07680743
N 0.8920154 -1.0348554 0.16405281
C -1.0164347 -0.21330664 -0.02985891
N 1.1883937 0.2041039 0.34509608
H -2.0753825 -0.12043703 -0.22416443
H 0.1141298 1.258291 -0.89390194
H 1.6114244 -1.7426683 0.11266697
