9

O 1.584479 -0.27758703 -1.5371089
C 0.61965257 -0.14875303 -0.61384785
N 0.34886068 0.99323153 -0.01843958
N -0.66708213 0.624246 0.80418426
C -0.93535024 -0.68066597 0.6536929
N -0.1325067 -1.2125338 -0.24575394
H 1.9884535 0.59140176 -1.6574817
H -1.0971621 1.304475 1.4083071
H -1.7093446 -1.1938146 1.2064477
