10

N 1.8280725 0.394005 0.12168076
C 1.2006699 -0.6706413 0.3716387
O -0.1321185 -0.77833235 0.22831294
C -2.210176 0.1223401 -0.33306333
C -0.7752881 0.405484 -0.23348877
N -3.347833 -0.054731797 -0.42765704
H -0.38192952 0.6971274 -1.211408
H -0.604117 1.2315468 0.4638151
H 1.5991966 -1.6259993 0.72601813
H 2.8235233 0.27920163 0.2941514
