11

C 0.68568734 1.68041617 0.28911370
N 1.25417122 -0.17703426 -0.67071280
C -0.20588144 -0.09134066 -0.50635132
N 1.77325357 0.85372206 -0.20772493
C -0.73045599 -1.28155899 0.28602433
N -0.46802684 1.17588061 0.13655046
H -0.64078195 -0.08187889 -1.51316478
H 0.91010468 2.64024127 0.74131410
H -0.46725698 -2.21342266 -0.22102050
H -0.29382122 -1.28890213 1.28937308
H -1.81699263 -1.21612251 0.37659867
