11

C -0.21133421 0.61726624 -0.612619
C -0.4970489 -0.5888607 1.7543471
C -0.23502092 0.19053665 0.7568625
O 0.284325 1.4345784 0.48869038
C 0.81254756 0.120898254 -1.5937448
N -0.6444298 -1.4173412 2.6623268
H 0.40022695 -0.7175698 -2.1640239
H 1.7135252 -0.21461813 -1.0733256
H -1.14019 1.006837 -1.0333245
H 1.0781642 0.9169533 -2.2963169
H -1.560765 -1.34868 3.1111276
