11

C 1.67829211 0.28989665 0.56050674
C -0.77219467 0.14703970 -0.21557981
C 0.60393094 0.45759967 -0.47628961
O -0.40816140 1.47244095 -0.20735497
C -1.81687116 -0.60289889 -0.08390762
N -2.76125859 -1.36413758 0.16343068
H 2.43101624 1.07723786 0.45390656
H 1.25263097 0.33338626 1.56653325
H 0.92911616 0.46156705 -1.51829268
H -3.30825666 -1.59414912 -0.66945258
H 2.17175622 -0.67798270 0.42649944
