11

C -1.2301155 0.4940864 -1.9190515
C 1.050231 -0.16455014 0.9759433
C -0.81856734 0.85798556 -0.50222147
O -0.831511 1.913467 0.056050785
C -0.300208 -0.2578165 0.3343175
N -0.68511593 -0.59820724 -2.1353588
H -0.29139036 -1.0662378 -1.2401153
H -1.0685203 -0.72283953 0.9550626
H 1.3932669 -1.1702769 1.2485253
H 1.7946757 0.29708278 0.32243478
H 0.9872548 0.41730636 1.9044123
