11

C -0.888416 1.2783555 0.5823805
C -0.07928055 0.138837 0.082857944
N -0.29350463 -0.63774437 -0.9624444
C 1.4979681 -1.3334656 -0.08928941
C 0.70663065 -1.6419038 -1.1519337
O 1.0161754 -0.23758785 0.67324775
H -1.2301513 1.0847704 1.6029649
H 2.4141657 -1.7434206 0.30591515
H -1.7605184 1.4284174 -0.05903182
H -0.29326397 2.1946614 0.5908824
H -1.0898049 -0.53091955 -1.5755494
