11

C -0.15941985 0.15427934 0.15986687
C 0.31554377 -1.3078221 -1.5032213
N -0.69451123 -0.7853588 -0.5755303
C 1.3825583 -0.5235908 -1.223401
C -0.76637435 0.9440384 1.2608072
O 1.0716106 0.41198254 -0.23853281
H 2.3864815 -0.44583055 -1.6095183
H -0.7912757 -1.8672011 -0.8938209
H -1.8270177 0.7024004 1.3379173
H -0.64275306 2.0155406 1.0755949
H -0.27484235 0.7015624 2.209838
