11

O -0.4182608 -0.5328949 -0.9651637
C 0.46869555 0.5638166 -1.2538859
C -0.20335108 0.44220322 1.1716633
O -0.66269934 1.6198301 0.90621144
C -0.20746206 -0.75654507 0.3316747
N -0.0009884652 -1.8808514 0.9122331
H -0.0012713993 -2.6331408 0.22480266
H 0.12500001 1.0467108 -2.1669614
H 1.496076 0.20276922 -1.3178388
H -0.48695883 1.6884187 -0.08187782
H -0.10877951 0.23968366 2.2391424
