11

N 0.0022224626 -3.0073247 -0.036799435
C 0.59698117 0.47502074 -0.50577676
C -0.7858972 1.0591962 -0.1931399
C 0.28077832 -0.48959804 0.6551008
C 0.12183154 -1.9051396 0.27912712
O -0.9706021 0.14647861 0.906266
H 0.70837694 0.007698364 -1.4845835
H 1.4413564 1.1352576 -0.30570713
H -1.5452247 0.9083953 -0.9688062
H 0.95406157 -0.43087184 1.5165879
H -0.80388457 2.1008873 0.13773137
