10

C -1.10840344 -0.18062736 -0.52477646
C -0.03802366 -0.82411138 -1.00395623
N 1.25725740 -0.07207782 1.06145520
C 0.85823548 0.19001273 -0.34188265
C 0.16457656 0.50009214 1.40666765
N -0.38987937 0.89922864 0.13632129
H -2.18843536 -0.28000924 -0.55451953
H 0.14592065 -1.67900918 -1.63807591
H 1.56442683 0.77864796 -0.93232564
H -0.26567492 0.66785326 2.39109222
