11

C 0.17227296 0.72118441 -1.32263928
O -0.07905798 1.06137429 0.03412382
C 1.21317409 -1.17179768 0.87124440
C -0.77350285 0.15093212 0.77098374
O 0.00028747 -0.97406834 1.29983034
H -1.59330100 -0.32419312 0.21459112
H -1.15107411 0.65326862 1.66397201
H -0.73378149 0.31165795 -1.79506758
H 0.99289142 0.00039947 -1.37859485
H 1.49741658 -2.07732703 1.46597815
H 0.45467470 1.64856919 -1.82442155
