11

C -1.1439162 -0.31311956 0.7075641
N -0.05906486 0.6594332 0.6396323
C 1.1023394 0.18421647 -0.082025506
C 0.83302414 -0.16963004 -1.4990121
N 0.55794126 -0.41676727 -2.5939853
H -1.5135921 -0.63881034 -0.27629948
H -1.975225 0.12500678 1.2677546
H -0.79945844 -1.196481 1.2559004
H -0.3900549 1.5192941 0.21800673
H 1.8855324 0.94943106 -0.061136495
H 1.5024743 -0.7025735 0.42360073
