11

C -1.30429140 -0.72157466 -0.15005076
N -0.98628659 0.19577282 0.72675993
C 0.42811349 0.66988207 0.74055312
C 0.00851578 -0.90278086 -0.89485730
N 0.94063139 0.19201582 -0.51993850
H -0.12418808 -0.95245963 -1.98057123
H -1.64238210 0.49778791 1.43499220
H 0.93558085 0.20524021 1.59588548
H 0.49492036 1.76055765 0.83740691
H 0.83577718 0.93168061 -1.20898997
H 0.41360912 -1.87612204 -0.58118990
