12

N 1.328872 0.23307982 0.39058524
C 0.06801051 -0.9134595 -1.2655271
N -0.09211483 1.4113964 1.7776575
C -1.2967609 -0.4938203 -0.9597397
C 0.42570946 0.2920122 1.2911006
C 1.2815204 -0.48728785 -0.70268697
N -1.3374456 -0.97813314 0.19842236
H 0.070556074 2.3228061 1.361933
H -0.71379805 1.3671607 2.5659902
H 2.2203968 -0.84688413 -1.1162635
H 0.14399031 -1.7746791 -1.9302702
H -2.098936 -0.13219148 -1.6112015
