11

N -0.78840005 1.8636608 0.81516725
C -0.35798407 0.64567834 0.2641539
C 1.2105575 -0.8304126 0.03921936
N -0.025526056 -1.334572 -0.6007881
C -1.1057391 -0.2455775 -0.43172795
N 1.0094762 0.31226888 0.53774303
H 0.099780716 -1.5319073 -1.5947024
H -0.121039316 2.6066735 0.6575565
H 2.1305127 -1.4051661 0.039487764
H -0.3585273 -2.1958177 -0.16590087
H -1.693111 2.1151714 0.4397916
