11

O -0.108506724 0.3201496 1.4744442
C -0.32643685 -1.1593472 -0.4008547
C 1.3293542 0.7393698 -0.5050486
C -1.0949987 0.924388 0.6737401
O 1.767805 0.4556137 -1.5954645
C 0.23056611 -0.006352406 0.14141117
O -1.25691 -1.8662666 0.14053418
H -0.6887286 1.9355702 0.41855425
H 0.04186966 -1.5398953 -1.3535217
H 1.73312 1.5690067 0.11119704
H -1.6271341 -1.3722367 0.8950087
