11

N -1.12687332 1.46596647 1.12775410
C 0.70149516 -0.38500121 -0.04911612
N -1.48135656 0.83585196 0.15999260
N 1.93302488 0.17312911 0.05905758
C -0.62573291 -0.12814683 -0.61285299
C -0.15279042 -1.37264628 0.03649415
H 2.55023500 -0.27052889 0.72572638
H 1.91711669 1.17806827 0.15973276
H -2.43508761 0.92208769 -0.25303287
H -0.84534256 -0.05090761 -1.68142480
H -0.43468859 -2.36787253 0.32766920
