11

N -0.11180340 1.36646394 -0.19280507
C 0.00178440 0.27313732 -0.84210937
N 0.13191303 0.11751360 -2.19062718
N 0.12932798 -1.10828199 2.28346063
C 0.01271202 -0.42274642 1.23396335
N -0.20504710 0.92759032 1.13089901
O 0.05792476 -0.85603735 -0.08772496
H 0.27440960 -2.09035037 2.07285767
H -0.08804321 0.95758118 -2.70225832
H 0.08063734 1.55621656 1.86203260
H -0.28381524 -0.72108681 -2.56768803
