11

O 1.2598574 0.07274529 1.0051835
C 0.62321264 1.1162013 0.29154176
C -1.2304994 0.21026874 0.55826867
C 0.89703697 -0.560843 -0.22098301
N -0.5699253 -0.8392731 -0.0726297
C 0.9699891 0.7845147 -0.9690222
N -0.7014591 1.3769984 0.7244272
H 1.4554639 -1.4687264 -0.47395834
H 0.41844866 1.0619334 -1.8617194
H -2.2623217 0.022672467 0.85120064
H -0.8598035 -1.7764915 0.16769093
