9

N 1.209602 -0.024621006 -1.2957381
C 1.9714054 1.0521281 0.27456045
O -0.90734076 0.9804965 1.5728208
C 0.75800276 0.5450051 -0.017090332
C -0.57538635 0.33018136 0.6045336
C 2.1617525 -0.4624444 -0.5812516
N -1.3214931 -0.6188251 -0.008037954
H -2.258881 -0.77138287 0.33296782
H -1.0376617 -1.0305377 -0.88276464
