11

C 1.6618224 0.2758304 0.43808553
C -0.8885295 -0.026585389 0.27948758
C 0.48289055 -0.2760987 -0.32258427
C 0.5023497 -1.0420272 -1.3833915
O -1.0104046 0.24901146 1.4549794
N -1.9276278 -0.14276434 -0.5862932
H 2.606305 -0.09552299 0.03873685
H -2.860606 -0.0025139395 -0.22677034
H -1.7848262 -0.28984377 -1.5707567
H 1.5630163 -0.018922957 1.4870058
H 1.6556101 1.3694375 0.39150065
