11

C -0.31181374 0.8304877 0.26086918
C 0.28754857 -0.15276007 -1.6099378
N 1.0617287 -0.75444686 -0.8056099
C -0.6389897 -0.42412502 1.0067707
C 0.76461345 -0.1988386 0.49850067
O -0.5417572 0.80922824 -1.1388965
H 0.21964797 -0.32433856 -2.6790624
H -0.39457113 1.8200586 0.69115186
H -1.243362 -1.1801622 0.5154613
H 1.5931524 -0.09942245 1.1877828
H -0.7961974 -0.32568082 2.0729704
