11

C 0.5952713 0.7315159 2.2435648
C 0.3053467 0.16535757 0.9274193
C 0.07572281 -0.31630656 -0.15169908
C -0.14481199 -0.9690782 -1.4424605
O 0.32719108 -2.0530396 -1.717492
N -0.93729854 -0.26002353 -2.2964222
H 0.460715 -0.023548925 3.0219085
H -0.064180404 1.5754482 2.4630349
H 1.6295623 1.0817965 2.2839615
H -1.0376912 -0.62001383 -3.2334812
H -1.2098272 0.6878924 -2.0983336
