11

C -0.43482990 1.10167525 2.51702158
C -0.07020234 0.58223208 1.20102897
C 0.21304839 0.14227370 0.12482831
C -0.31141160 -0.99806620 -1.80146444
O 0.61886830 -0.29801761 -1.05052820
N 0.36159324 -1.32426195 -2.90150078
H -0.92379085 0.32552708 3.11430304
H 0.45225314 1.44690105 3.05795673
H 1.33478548 -1.07095180 -3.06333839
H -0.11351420 -1.85199602 -3.61529319
H -1.12679982 1.94468434 2.41698679
