10

O -1.53125526 -1.83252138 -0.64688107
C -0.82204383 -0.89108329 -0.27779708
C -1.05997998 -1.07456764 1.07808644
O 1.36262565 0.67794855 0.50936210
C 0.34154505 1.11124347 -0.32073413
O -0.25560330 0.03273960 -1.04068703
H 0.66705004 1.80941765 -1.09805254
H -0.42126716 -1.86373234 1.49903328
H 2.12967050 0.45851622 -0.02570010
H -0.41074183 1.57203889 0.32337040
