10

O -0.74699014 0.49096873 -0.5919374
C 0.4759642 1.0949073 -0.17035726
C -0.6033125 -1.2898549 1.1886176
O 1.5549289 0.2384938 -0.31800866
C -1.0904646 -0.5911252 0.09173116
O -2.1615443 -1.2033288 0.03253194
H -0.16249748 -2.2524087 0.8934845
H 1.775872 0.17067698 -1.2504168
H 0.40957695 1.3336126 0.89348066
H 0.54846704 2.008058 -0.76912576
