13

C 0.58432376 -1.5840623 -1.1659206
N 0.23156928 -0.6416133 -0.12701447
C -0.051506054 0.6599952 -0.38235652
O -0.07612398 1.1691417 -1.4883118
C -0.33457297 1.4753841 0.87775517
O -0.5641862 0.6899819 2.035425
H -0.11440847 -2.427491 -1.1803899
H 0.534037 -1.0560744 -2.118412
H 1.6003945 -1.9649975 -1.0215534
H 0.26941612 -0.91071814 0.84497374
H -1.1654482 2.1559849 0.65355617
H 0.5492739 2.0882897 1.0839472
H -1.4627688 0.34617922 1.9883013
