13

C 0.85461025 0.20799763 -1.50878583
N -0.31658505 -0.31848314 0.52482110
C 0.47632944 0.59789137 -0.08277862
O 0.05653601 -0.82648244 -2.05928797
C -0.75741159 -0.19529089 1.89801264
O 0.87843183 1.62892373 0.42853476
H -0.54284655 -1.14184135 -0.01549779
H -0.78591159 -0.44357924 -2.33222453
H 1.88401671 -0.16862832 -1.48644230
H -0.38077204 -1.02335586 2.50642621
H 0.84537553 1.12025778 -2.11721230
H -0.36069380 0.74233979 2.28888462
H -1.85107926 -0.17974898 1.95554989
