11

N -0.35765293 -2.8531468 -1.1184096
C -0.60802364 -1.848919 -0.601462
C 0.20660214 0.45915985 -0.19519618
C 1.1083145 1.4480364 1.095193
C -0.8996589 -0.5608434 0.035450228
O -0.1157572 1.6725633 0.42980263
H 1.8824878 1.8799832 0.4061295
H -1.0369881 -0.6957406 1.1123585
H 0.542387 0.5920746 -1.2275319
H 1.1094732 0.058692563 0.43556488
H -1.8311837 -0.1518603 -0.37189898
