11

N 0.62518984 1.8164876 -2.606489
C 0.11501854 -0.6595934 -0.24550778
C 0.47747058 1.4039736 -1.5384783
C -1.2138116 -1.0915089 1.6034192
C 0.29598153 0.8534235 -0.1933717
O -0.00668698 -1.1445516 1.1110246
H -1.0620735 -1.4883424 2.6338487
H -0.7943922 -0.93400735 -0.7843994
H -0.5900324 1.3007616 0.26824027
H 0.98578143 -1.1642992 -0.66908854
H 1.1675547 1.1076566 0.42080188
