9

N 1.08453836 -0.15551747 -0.93011009
C -0.03945798 -0.05263927 -0.27893340
C 0.24290468 0.47154107 1.01993086
N 1.52187392 0.67474901 1.10726791
N -1.26782984 -0.34760718 -0.82300178
O 2.04788406 0.30624486 -0.07363612
H -1.22260856 -0.86827292 -1.68526432
H -1.94108837 -0.72472022 -0.17248294
H -0.42621627 0.69622187 1.83623016
