9

N -0.78027080 -0.90922850 0.91550258
C 0.46879816 0.49436941 -0.46784664
C 0.53121520 -0.25868483 0.81324736
C -0.74796632 0.25159752 -0.96165144
N -1.47746760 -0.61400425 -0.07845859
H -1.22853357 0.59368304 -1.86867435
H 1.25515480 1.10404116 -0.89201496
H 1.30740440 -1.03296729 0.83994263
H 0.67166604 0.37119383 1.69995328
