9

N -0.45795935 -0.75589496 1.2309281
C 0.19488741 0.8404259 -0.23840673
C -0.33559415 0.5663877 1.0131661
C 0.42779973 -0.42947012 -0.78371954
N 0.048532177 -1.4119567 0.19693582
H -0.66543216 1.2677503 1.7710118
H 0.3907057 1.8007604 -0.6928616
H -0.62579906 -1.146817 -0.85904855
H 1.0228598 -0.7311854 -1.6380049
