12

C -0.38118675 -0.019811383 -0.2999963
N 0.48823357 0.84777004 0.17857505
C -1.6182917 0.49727952 -0.85052496
N -0.117789105 -1.3818773 -0.36440232
C 1.6781442 0.44892445 0.79810315
O -2.4910161 -0.2198069 -1.3102045
H -1.7028488 1.5999719 -0.8221886
H 0.479602 1.1837574 1.256361
H -0.9142117 -1.8638158 -0.76803464
H 0.1595311 -1.7897059 0.51926917
H 2.373902 1.2648076 0.9551396
H 2.045931 -0.5674936 0.7079035
