10

O -0.4433895 0.7457084 -1.8751115
C -0.52649885 0.27138284 -0.6748853
C 1.013619 -0.065510415 0.79244745
N 0.8106739 -1.34979 0.725065
N -0.50367075 -1.6888746 0.5577208
C -1.2495394 -0.8434949 -0.15159361
N 0.040530212 0.8872145 0.41659558
H 1.9274383 0.30434316 1.2441907
H -1.1779027 0.19266713 0.8261255
H 0.10874015 1.5463538 -1.8605547
