10

O 1.27275667 0.54437472 -1.65273656
C 0.43008498 0.06590625 -0.76037342
N -0.32928569 -1.01546183 -0.98725730
C -1.08554445 -1.26275941 0.11319526
C -0.70667916 -0.17622243 1.12324900
N 0.29210342 0.63902605 0.42235853
H 1.19960520 -0.03940082 -2.42512869
H -0.28665902 -0.62038596 2.03097027
H -1.58483152 0.41699317 1.39590583
H 0.79844952 1.44793019 0.73981690
