10

O -1.7718307 0.06572026 1.2389215
C -0.7623067 -0.15381013 0.40149036
N 0.38602033 0.5596989 0.5578779
C 1.2165538 0.09585999 -0.46444014
C 0.55161256 -0.9648299 -1.16794
N -0.7476945 -0.9883602 -0.5920633
H -2.484379 -0.5287962 0.95430106
H 0.80507946 0.2624253 -1.6558172
H 2.268084 0.3561262 -0.49811164
H 0.53886086 1.2959658 1.2257812
