10

O 0.5421995 0.5771872 -2.0051599
C -0.23392558 -0.1895634 1.3044089
N 0.38471735 0.6655297 0.28483012
C 0.11693815 0.07219252 -0.8652157
C -0.88547575 -1.321496 0.5053338
N -0.6017375 -1.0575036 -0.7961576
H -0.9875839 0.3573337 1.8791269
H 0.5166064 -0.5853003 1.9956036
H 0.9190804 1.5106302 0.39324307
H 0.22918099 -0.029010236 -2.6960135
