10

O 1.27965073 -0.43724310 0.41835209
C -0.01563776 0.02745972 0.48796002
C 0.28244706 -0.94766145 -0.51848399
O 0.37887162 -0.54073129 -1.81624142
C -0.60458189 1.29621498 0.83196422
O -0.82874257 0.06661260 1.59202208
H 0.05650472 -2.00177303 -0.34926056
H -0.00336898 2.03615290 1.35665882
H 0.93302490 -1.16401462 -2.30029497
H -1.47816789 1.66498342 0.29732396
