11

C -1.199321 -0.20233639 -1.1853732
C 1.052868 0.3236652 -0.07233386
C -0.2215748 -0.16915138 -0.061775636
N 2.005528 -0.25202653 1.0533141
C 0.9984396 0.05580068 1.6756034
O -0.53075635 -0.6330451 1.1160465
H 0.7049538 0.5461375 2.5985043
H -2.153155 0.23391777 -0.875161
H 1.5465617 1.0208994 -0.73082423
H -1.3834995 -1.2478939 -1.4527079
H -0.82004404 0.32403272 -2.0652924
