11

C -0.8803896 -0.80062985 -1.1902802
C -0.12678242 -0.06399518 -0.14228132
C -0.2635258 1.1331621 0.46937323
N 0.75955373 1.3034499 1.3963139
C 1.4474154 0.22056627 1.2977676
O 0.9848764 -0.6634256 0.39200112
H -1.2598501 -1.753396 -0.8098279
H -1.7295098 -0.19537346 -1.5178045
H -0.24873994 -1.0096123 -2.0591595
H -1.019421 1.8903168 0.3180292
H 2.3363736 -0.061062813 1.8458687
