11

C -0.68820775 -0.45462474 -1.1683692
C -0.68259007 0.030615183 1.1995949
C 1.2628317 0.438918 0.4349886
N 0.58101326 -0.021549216 1.5481299
C -0.7294511 0.51760954 -0.15103018
O 0.4275378 1.2558554 -0.30618185
H 0.7365285 -0.6692204 -0.5702857
H -0.36875725 -0.1443454 -2.161003
H 2.3015156 0.7493781 0.51257277
H -1.3541392 -1.3116666 -1.1284308
H -1.4862813 -0.39096993 1.7900149
