11

C -0.8797234 -0.8003292 -1.190271
C -0.12454939 -0.062507905 -0.14242557
C -0.26296097 1.1339188 0.46958217
N 0.75862366 1.303484 1.397685
C 1.4456737 0.22124633 1.2980094
O 0.984603 -0.66349703 0.38948947
H -1.2578448 -1.7521502 -0.8075952
H -1.7302207 -0.19725367 -1.518419
H -0.24858883 -1.0102962 -2.059123
H -1.018794 1.8899927 0.31717294
H 2.3337822 -0.06260755 1.845895
