11

C -1.294768 -0.46387827 -1.0443478
C 0.6066332 -0.20439403 0.6515631
C 1.4586087 0.651135 1.4588368
N 2.117932 0.002346802 0.62386894
C -0.16051401 0.37545934 -0.5022202
O 0.13178344 1.4614677 -0.95010173
H -0.9086104 -1.4210535 -1.4117984
H 0.26585588 -1.1624577 1.0415529
H -2.0177085 -0.6907276 -0.25449625
H -1.7916422 0.06806091 -1.8561566
H 1.5924298 1.3840412 2.243299
