11

O 0.19636360 -0.85076254 1.84437929
C -0.13166780 1.09686711 -1.34206044
C -0.20523453 -0.21196868 -1.62229647
C 0.05563991 1.10592960 0.17628738
C 0.06820621 -0.32611326 0.62923973
N -0.08369232 -1.07343422 -0.41291720
H 0.99055236 1.60040467 0.47074848
H -0.33757776 -0.76000079 -2.54557617
H -0.11409054 -2.08614042 -0.38016946
H 0.31181950 -0.14321833 2.49353516
H -0.75031841 1.64843768 0.68882983
