11

O -2.2304082 0.22802569 -0.2247148
C -0.9410652 0.23787606 -0.2828142
C -0.26837814 0.47496673 0.9522526
C 1.1513687 -0.46572542 -0.5770031
C 1.0882051 -0.048971225 0.70759094
N -0.10470972 -0.25436023 -1.2088767
H -0.42552733 1.4352932 1.4395158
H 1.9115013 -0.045956876 1.4090301
H -0.4214053 -0.7401302 -2.0349925
H -1.7227364 0.072995596 0.9663164
H 1.963155 -0.89401335 -1.1463048
