10

N 0.40473446 0.6517964 -1.0929611
C -0.826717 -0.44740677 0.5431536
C 1.1143799 0.5743119 0.053296708
C 0.3961293 -0.041367803 1.0776511
C -0.8253122 -0.04730857 -0.8003274
H 2.131918 0.9434493 0.07916087
H 0.14507338 -0.5092898 -1.5078065
H -1.6291099 -0.9678909 1.049002
H -1.6530464 0.046740506 -1.4927002
H 0.7419507 -0.20303428 2.091531
