10

N -0.114635244 -1.1981298 -0.7322079
C 0.3382865 -1.1960723 0.46940553
C -0.42145103 0.1908068 -1.0489184
C -0.07004907 0.9948271 0.16764778
C 0.3901634 0.13664873 1.0884144
H -1.4816908 0.27482596 -1.3175417
H 0.7396527 0.34968242 2.0909686
H 0.6485436 -2.11592 0.95988774
H -0.17843418 2.0689235 0.25772956
H 0.14961402 0.49440762 -1.9353856
