11

C 0.48670049 1.06218401 -0.64769848
C -0.66185709 0.28889303 -0.05477508
O 0.62544934 -1.80189486 0.51945996
C -0.52624610 -1.05763900 0.51288111
O -0.61603424 0.05292178 1.36762243
H 0.44022976 1.01941082 -1.74123833
H 0.43701099 2.11238199 -0.34434754
H -1.65085644 0.59226981 -0.40447748
H -1.38067158 -1.73214498 0.53077508
H 1.46083065 0.67291936 -0.32990109
H 1.38544405 -1.20930196 0.59169946
