11

C -0.5348445 -1.0671259 0.4834935
C -0.5982887 0.36700785 0.178522
O -0.21929798 -0.12853207 1.4792153
C 0.46257985 1.1006709 -0.59930706
O 0.4444951 -1.9254525 0.053921793
H 0.12480383 1.2639631 -1.6284142
H -1.4508075 -1.6325091 0.64681846
H 1.4110622 0.5522593 -0.6321349
H 0.6620987 2.0765264 -0.14620121
H -1.5829688 0.8390494 0.17296901
H 1.2811679 -1.4458578 -0.008882704
