10

O -1.1212333 1.3025486 -0.3423063
C 0.19902807 -1.4686093 0.8445089
C -0.2446972 0.78168625 0.46504086
O -0.5747405 -0.5148176 1.2198703
C 0.6214193 0.42305928 -0.6770231
O 0.20360388 -0.17686589 -1.7400984
H 1.59762 0.89472175 -0.8142747
H -0.75711644 -0.28346008 -1.6346635
H 0.21622317 1.3975674 1.2510277
H -0.14010693 -2.3558302 1.427918
