10

O -2.14804526 -0.52580646 -0.15465747
C -0.80798277 -0.51116961 0.10819928
C 0.04474969 0.66393273 -0.02680314
O -0.37964282 0.24279899 1.23689320
C 1.98534773 -0.59142240 -0.14502062
O 1.43456609 0.58995317 -0.30433023
H 3.05045674 -0.37230592 -0.39178484
H -0.35778605 -1.49335708 0.01646010
H -2.51518517 0.35319236 0.01272326
H -0.30647860 1.64418433 -0.35167951
