11

C 0.13465394 0.2156869 -0.14627005
C 0.1408046 -1.2049974 -0.63875014
O -1.0663948 0.93470174 -0.27557665
C -0.60213387 0.6248813 1.0486048
O 1.2705101 0.8815536 -0.5540569
H -0.74925196 -1.7346615 -0.28821343
H -0.25817823 1.4866724 1.6219052
H 1.0344838 -1.7201406 -0.27683747
H 0.15472773 -1.2152765 -1.7323824
H -1.213641 -0.089659765 1.5987523
H 1.1544194 1.8212395 -0.3571755
