11

C 0.24090598 -0.00438250 -0.16730977
C -1.04515626 -0.64803677 -0.60625331
O 0.29805910 1.39996069 -0.19513695
C 0.35196435 0.74548846 1.08304291
O 1.32655089 -0.65240299 -0.71620171
H 2.11404195 -0.11873210 -0.54212661
H -1.90027297 -0.14634695 -0.14505545
H -1.13693459 -0.58233197 -1.69418283
H -0.51848793 0.90002186 1.71991372
H 1.31786147 0.81041578 1.58552667
H -1.04853204 -1.70365389 -0.32221647
