12

N 0.01353001 -0.32544112 2.0634596
C 0.8830861 -0.9974231 1.5265877
C 1.1986415 -0.49314365 -0.45852998
N 1.562195 -1.453445 0.6025299
C 0.010283826 0.12659356 -0.36503285
N -0.60432386 0.8027056 -1.4132354
C -0.86360574 -0.00939462 0.8855984
H 1.8774093 -0.42889035 -1.3015007
H -1.346737 0.9465685 1.1167305
H -1.0548971 1.6667937 -1.1553819
H -0.019651322 0.91902924 -2.22932
H -1.6559308 -0.75395304 0.72809476
