12

N 0.85558444 -1.7395006 0.56363404
C 0.2653699 -0.5429067 0.16795987
C 0.93171835 0.39338443 -0.62527615
N 0.34984642 1.5064348 -1.0612941
C -0.9184149 1.6959559 -0.6997448
N -1.6530076 0.8828627 0.058040068
C -1.0561725 -0.22516939 0.48622677
H 1.863466 -1.7375036 0.603632
H 0.44593555 -2.1782455 1.375733
H 1.9681135 0.23525 -0.91955656
H -1.4001977 2.602359 -1.0558203
H -1.6522408 -0.89292115 1.1064664
