12

N -1.2540458 -1.4382778 -0.69396925
C 0.36870238 -0.003778138 0.2885642
C 0.027901532 -0.6715442 -0.9362235
N -1.862413 0.7742354 0.09631818
C -0.68914837 0.8293274 0.72576654
N 1.6745 0.106217004 0.767847
C -1.626108 -0.20425624 -0.82887024
H 1.7364296 0.5078756 1.6933416
H -0.7632425 0.29568797 -1.6144683
H 2.217581 -0.74020535 0.6958251
H -0.55415386 1.5909499 1.491158
H 0.7239973 -1.0462315 -1.6852894
