15

N 0.092462674 -0.03174957 -1.1596628
C 0.28555912 1.2711513 -0.51503634
O 0.43429953 -1.8902138 0.22593364
N -1.688298 -1.3186244 -0.42498535
C 0.8727046 0.99487466 0.8934432
C -0.38565716 -0.98968005 -0.28421193
O 0.13701622 -0.046477854 1.439239
H 0.9610252 -0.3841318 -1.5486368
H 0.6596546 -1.3016796 1.0718404
H 0.7985835 1.9071825 1.5025064
H -2.332946 -0.58448863 -0.6552793
H -0.6893129 1.7559913 -0.41308326
H 0.9212621 1.9058858 -1.1428856
H -2.014223 -2.0294988 0.21012235
H 1.9478699 0.7414589 0.80069613
