11

N 0.78420824 -1.072595 -2.0561724
C 0.085334316 1.1130239 1.0925764
C -0.50253344 0.43262944 -0.056647297
C -0.07499011 -0.96248233 -0.42792708
C 1.5131589 -0.8083609 -1.1417526
O -1.2063469 0.51687753 1.167415
H 0.23645703 -1.5456533 0.4384023
H -0.88612604 -1.5017743 -0.9209829
H 0.86160177 0.6067971 1.6635257
H -0.9133474 1.0211767 -0.8782078
H 0.10258366 2.200361 1.1197709
