11

N 1.4940063 -0.19633478 1.1742237
C -0.23995379 -0.41699618 -0.49532872
C 0.09871965 -0.41567558 0.9806369
C -0.6935425 0.8029232 -1.1601385
C 2.646042 -0.015006738 1.2681503
O -1.6050355 -0.22405851 -0.78909814
H -0.17406088 -1.3725805 1.4379503
H 0.25734925 -1.1857626 -1.0880541
H -0.53439945 0.92597294 -2.2295172
H -0.46842253 0.3715452 1.4891236
H -0.78070265 1.7259734 -0.5879484
