11

N -1.35797137 -0.46759956 -1.25963008
C 1.09372770 1.02747642 0.46867910
C -2.16346288 -0.02257366 -1.98214216
C -0.04066134 0.12987252 0.67697409
C -0.37841632 -0.94146020 -0.33857685
O 1.17112137 -0.07151743 1.36834827
H 1.69804447 0.92936457 -0.43253973
H 1.09396298 2.01304832 0.92985860
H 0.52592492 -1.23118934 -0.88460751
H -0.76780566 -1.83481697 0.16092432
H -0.87446384 0.46939540 1.29271195
