10

O 1.753598 -1.129836 1.0103233
C 0.80429626 -0.61057055 0.5020138
C 0.5049768 -0.085670896 -0.9329983
C -0.72101325 0.58135283 -0.30762887
O -1.5220541 -0.4670799 0.1993961
C -0.47150534 0.02644579 1.0367432
H 0.29222995 -0.8202929 -1.7106409
H 1.2930368 0.5993641 -1.2614338
H -1.1990057 1.5209078 -0.55988985
H -0.7345598 0.38537973 2.0241153
