10

O 1.38710336 -0.78926927 -0.52549177
C -0.57207672 -0.05549025 1.44227692
C 0.20898368 -0.20447485 -1.02611397
C -0.64014230 0.40107077 0.07462099
N 0.09879468 0.99502231 1.25304603
H 1.77554428 -0.15693796 0.09656373
H -0.34498224 -1.00092524 -1.53422055
H -1.51579202 0.95699367 -0.26335556
H -0.82404471 -0.72005376 2.25766709
H 0.42661241 0.57406469 -1.77499292
