10

O 0.13606596 -1.0250261 1.4536828
C -0.1032888 0.054733597 -1.1969564
C -0.44711596 0.018703878 0.96445036
C 0.4708401 0.7160629 -0.06794795
N 1.0054157 -0.5084162 -0.7270988
H -1.1089051 0.636471 1.5866086
H -1.2295922 -0.3261889 0.032162286
H 1.0693378 1.6180282 -0.024955722
H 0.8717689 -1.2373788 0.099904545
H -0.66452646 0.05301051 -2.1198497
