10

O -2.3615649 0.8341013 -0.37515542
C 1.3002267 -0.13551028 -0.0824739
N -0.93845516 -0.4298932 0.7966624
C -1.540585 0.7313252 0.6676895
C 0.24277176 -0.887182 0.61352926
N 1.0371829 0.99092263 -0.6065146
H -2.369167 0.0021716023 -0.8818827
H 1.8683065 1.3946134 -1.0320067
H 2.2815707 -0.62446314 -0.10093928
H 0.47971335 -1.8760855 1.0010916
