10

O -1.964435 0.99092704 -0.18668255
C -0.8053745 0.35026488 0.040397875
N -0.4766128 -0.30025664 1.117307
C 0.7997449 -0.76581097 0.8570565
C 1.2181906 -0.38383618 -0.38127828
N 0.15712637 0.34736404 -0.9083657
H -2.4925518 0.8648269 0.61396223
H 1.3362795 -1.3512963 1.58998
H 2.1302748 -0.5464119 -0.93323004
H 0.0973578 0.794229 -1.809147
