11

C -0.98852915 0.89347905 -0.11679821
C 0.058275796 -0.19513991 -0.17254755
C 0.67459154 -0.73940414 1.0455627
O -0.31528276 -1.4646885 0.33643788
C 0.8387646 -0.24609654 -1.4086776
N 1.4486524 -0.25132412 -2.391243
H -1.7180704 0.7645276 -0.9209213
H -1.5124172 0.8486444 0.84136003
H -0.5251696 1.8784721 -0.2251088
H 1.6785815 -1.1567503 1.0064816
H 0.36060315 -0.3317198 2.0054545
