10

N -1.5382584 -1.421818 0.75112987
C -0.6807716 -0.640953 0.26722568
C 0.14457358 0.3344545 1.010096
C 0.92526567 0.964025 0.13639179
C 0.63724875 0.41911387 -1.218823
O 1.1041896 0.69384825 -2.2811491
O -0.34450907 -0.5482261 -1.0706675
H -1.9713801 -1.9919013 0.026535837
H 0.061473683 0.4516634 2.0825884
H 1.6621679 1.7397934 0.29667193
