10

N -1.3433349 -1.6663729 -0.53238946
C 0.43660414 1.7080656 -0.3866171
C -0.24288642 -1.0340518 -0.3840892
C 0.2923195 1.1131252 0.82254434
C 0.05054774 -0.25572082 0.8435207
O 0.5929528 2.2588558 -1.3735644
O 0.85096645 -0.92154515 -1.0320112
H 0.23308744 -0.7883702 1.7776868
H 0.48389763 1.7256367 1.6983715
H -1.3541545 -2.1396222 -1.4334519
