12

N 0.67872007 -1.70705577 0.99267921
C 0.31022532 -0.55139765 0.28225709
C 1.80644162 0.45451639 -1.44828829
N 1.11339118 0.01952535 -0.52233982
C -2.04474314 1.69011155 -0.93134956
N -1.52871864 0.92775250 -0.13322799
C -1.00693192 -0.00297303 0.57048223
H 1.64421567 -1.95750214 0.82491112
H 0.07619679 -2.49709351 0.78518168
H 2.50759902 1.24763450 -1.13421656
H -2.00718962 2.75955868 -0.71213389
H -1.54920622 -0.38307650 1.42604508
