12

N 0.8570695 -1.7367637 0.5660622
C 0.26639268 -0.54450303 0.16912015
C 0.9304421 0.3942242 -0.62693334
N 0.3494823 1.5061715 -1.062626
C -0.9175405 1.6949171 -0.69886565
N -1.6510463 0.88138425 0.05873759
C -1.0571524 -0.2260173 0.48527116
H 1.8654026 -1.7344055 0.6057306
H 0.44562206 -2.1762094 1.3755691
H 1.9667302 0.23533873 -0.9219806
H -1.4018593 2.600483 -1.0535619
H -1.6535428 -0.8946195 1.103477
