12

N 1.1248556 -0.46842945 -0.16773109
C -1.018755 0.5181238 0.18181507
C 1.8687662 -1.112267 -0.91538537
N -1.4583982 0.30182752 -0.99871415
C -1.9013647 -0.07357612 -2.069846
N 0.53623766 0.13146819 2.013772
C 0.26492307 0.0073353667 0.64008605
H -1.6067989 1.1219149 0.8601723
H -1.7967849 0.59515446 -2.9271939
H 1.4863942 -0.13697805 2.2332952
H -0.113155454 -0.3990591 2.5856798
H 2.6140802 -0.4855145 -1.4359499
