11

O 2.0323303 -0.9488821 0.32738227
C -0.8859269 -0.51237893 -0.6685639
C 0.41762063 1.0037462 0.67652476
C -0.11298394 0.66375285 -0.694616
C 1.1610335 -0.20224686 0.49030024
N -0.91808224 -1.1607703 0.4667807
H 0.093576856 1.2703375 -1.56575
H 1.1245079 1.8405119 0.68043345
H -1.2852265 -2.0985553 0.37506303
H -1.3390168 -0.8781926 -1.5967653
H -0.28783286 1.0226777 1.5092106
