11

O 1.4025304 0.793866 1.6805875
C -0.46365774 -0.07122248 0.44375527
C 0.4188845 -0.015256016 -0.80321074
C 0.26074335 0.40884772 1.6774812
C -0.2971852 -0.48257378 -1.9942467
N -0.87825954 -0.8526393 -2.9205039
H -1.3642828 0.5441322 0.3193548
H 1.314772 -0.6287901 -0.66796875
H -0.819571 -1.0912331 0.6338865
H -0.33945647 0.38705516 2.6120281
H 0.76548237 1.0078137 -0.9811631
