11

O -0.11038992 2.54064621 0.03867162
C -0.41120538 1.39123485 0.11875748
C -0.43795165 0.06506292 -0.55364250
C 0.82145391 -0.72436657 -0.64272884
C -1.02925487 0.30744267 0.86864415
N 1.40969309 -1.14209441 0.40069529
H 1.18785048 -0.89086929 -1.66451230
H -1.13145224 -0.05575603 -1.38204469
H 2.26954543 -1.63226985 0.15850747
H -0.45800678 -0.14942099 1.67420963
H -2.11028200 0.29039081 0.98344312
