11

O -0.71928626 -1.1952862 0.8603482
C -0.5626068 1.0209993 0.2182659
C 0.57540375 0.041727845 0.6191348
C 0.79273796 -0.7315898 -0.63677996
C -0.72920513 -0.67543787 -0.3735692
N -1.4932942 0.20610783 -0.91171205
H -0.193386 1.8570862 -0.38209677
H -1.1983637 1.3070695 1.0506032
H 1.1350741 -0.1868194 -1.5171727
H 1.1265115 0.053050037 1.554606
H 1.2664149 -1.6969074 -0.48162737
