12

N -0.9639781 -1.6334745 -0.33039567
C 0.68591917 0.45641968 1.3666011
N 0.79992205 -0.27847174 -1.3378332
C -0.13723573 0.9210977 0.18334904
C 0.6944614 0.9741277 -1.0804269
C -0.017455079 -0.6214328 -0.13743563
N 0.8010739 -0.7929335 1.1001077
H 1.1356839 1.7927155 -1.6442748
H -1.5507475 -1.4852259 -1.1409432
H 1.1202838 0.97362995 2.2178853
H -1.0514201 1.506852 0.30389738
H -1.516508 -1.8133045 0.4994689
