12

N -1.38799357 -0.95515976 -0.93155650
C -0.19412603 -0.45601939 -0.39966647
N 0.48460887 -1.39793463 0.54003046
C 0.73187325 -0.43446664 1.34981591
C 0.13288918 0.73103485 0.59059300
C 0.99564401 1.12194694 -0.59029809
N 0.73778600 0.15429490 -1.39251008
H -1.87031071 -0.29373291 -1.52581905
H -2.00338681 -1.33232121 -0.22068118
H -0.57214612 1.42618892 1.05217628
H 1.26321752 -0.51073141 2.29465497
H 1.68194433 1.94690042 -0.76673892
