9

N -1.59850242 -1.13858780 -2.02482805
C -0.88408243 -0.14431564 0.07314036
C 0.51811911 0.20805616 0.26297996
N -1.26795896 -0.67806828 -1.05208225
N 1.05027293 0.73045706 1.28825377
O 1.27527980 -0.08194486 -0.82149505
H 2.17322935 0.19249649 -0.58001863
H -1.64416687 0.01610792 0.82047610
H 0.37780967 0.89579901 2.03357425
