10

N -2.003546 -0.6600826 0.4333533
C -0.0089101605 -0.36235058 -0.8780689
C 1.0148757 0.9976013 1.399266
C -0.83206207 -0.21967809 0.3096099
C 1.2063247 0.15798862 -0.8483596
O 1.6990231 0.8141395 0.25558037
O -0.21106021 0.4724801 1.3650715
H -2.3899984 -0.4461298 1.3508064
H -0.40952665 -0.88493294 -1.7360703
H 1.93488 0.13096455 -1.6511889
