10

N 1.1722851 0.6244948 -1.7039806
C -0.6950452 -0.35020092 -0.510243
C 0.59176743 0.3713502 -0.61501426
C 0.0656685 0.33143914 1.5833882
C -1.042165 -0.5825521 0.77648187
O 0.96254987 0.84060174 0.6217695
O 0.20169437 -0.97293824 1.5820308
H -1.9749534 -0.91531616 1.2027769
H -1.3178083 -0.48903683 -1.385603
H 2.0360067 1.1421583 -1.551606
