9

O 1.80550319 0.33253035 -1.61869444
C 0.97819852 0.27599543 -0.76407583
N -0.04973862 -0.56016386 -0.52116338
C -0.04473497 1.05237235 1.17585223
C -0.77720138 -0.17165770 0.66107139
O 0.92899862 1.24164376 0.31715245
H -0.24418674 -1.32610984 -1.14263707
H -0.77748750 -0.94519043 1.43730141
H -1.81935108 0.10057989 0.45519307
