9

O -0.24408896 -1.5630708 0.050336376
C 0.8593074 -0.795729 -0.49524125
N 0.52614444 0.4895115 -0.26724368
C -1.1990572 -0.84177965 0.58803594
C -0.73755944 0.5928014 0.41846898
O 1.7974796 -1.3218917 -1.006111
H 1.1412009 1.234621 -0.545147
H -0.6533667 1.0564537 1.4086777
H -1.4900601 1.1490831 -0.15177608
