11

C -1.4722914 0.7954707 -0.44909146
N -0.48009712 -0.087211855 0.12425598
C 0.8438893 0.026705386 -0.12585461
O 1.3910177 0.84261644 -0.8402737
C 1.6746486 -1.0245787 0.60814506
O 1.1918887 -1.8604268 1.3298552
H -0.95538646 1.5183069 -1.0817043
H -2.1860082 0.2323106 -1.0580653
H -2.016156 1.3284224 0.33516046
H -0.7501901 -0.83404404 0.7488195
H 2.7586846 -0.937571 0.40875316
