11

C 0.2932734 0.24811698 -1.5097823
N -1.1571194 0.12534252 0.73864037
C 0.062326044 -0.09550944 -0.074917085
O 0.93458426 0.38390616 0.9767875
C -0.057945658 -0.5124506 1.4873995
O 0.14834899 -1.4477175 0.4343771
H -1.2333213 1.114739 0.99657685
H -0.45194623 -0.255363 -2.1273346
H 1.2938387 -0.07081916 -1.8109963
H -0.035230886 -0.81771874 2.5353446
H 0.20319185 1.327474 -1.6460954
