11

C -0.06747264 0.29315672 -1.52856814
N -0.98291553 -0.04876054 0.96525909
C 0.05833570 -0.08505684 -0.08933893
O 1.05312442 0.51450433 0.77534486
C 0.32836248 -0.51985745 1.44922284
O 0.44202300 -1.41134810 0.34538248
H -0.33797747 1.34785936 -1.60690717
H -0.84517731 -0.31278840 -1.99570966
H -1.14468301 0.91782602 1.26656466
H 0.61317062 -0.82158978 2.45904235
H 0.88320936 0.12605472 -2.04029239
