9

O 1.740143 0.5428473 -1.644832
C 0.8878388 0.3549355 -0.8201294
N 0.26948997 -0.8139619 -0.4406742
C -0.66922295 -0.55737317 0.55873215
C -0.6170742 0.7586074 0.78471714
O 0.3221145 1.3353074 -0.03919922
H 0.4869315 -1.7008919 -0.8613963
H -1.2738781 -1.3309159 1.0037616
H -1.1463423 1.4114453 1.4590201
