9

O 0.33390674 -1.5362364 -0.18536668
C 0.5859268 -0.64276874 0.9258303
N 0.08707882 0.5455663 0.5308192
C -0.2726031 -0.980912 -1.2051718
C -0.47767395 0.46585864 -0.7898253
O 1.1285474 -1.0136005 1.9182389
H -1.5499337 0.6904746 -0.8158326
H 0.14016621 1.3494183 1.1319271
H 0.024584813 1.1221997 -1.5106188
