12

N 1.2604547 -1.3482609 -0.9342693
C -0.8379641 0.9429263 0.013473581
N 0.15460461 0.7554878 -0.7606689
C 0.96325654 -0.2382711 -0.075164124
O -1.8518524 1.7844844 -0.17552458
C -0.7800951 0.07815745 1.2177542
N 0.27022958 -0.6389535 1.1736342
H -1.5217744 0.046178907 2.009455
H 1.910536 0.2243437 0.23171087
H 0.39282864 -1.7590916 -1.265049
H 1.7507057 -2.0626204 -0.40267742
H -1.7109298 2.2156188 -1.0326747
