12

N 1.1560109 0.26429644 -0.6517739
C 0.079797514 0.51881987 -1.42613
N 1.369341 -0.3469015 1.7041049
C -1.0696687 0.18389527 -0.6966688
O -2.3280828 0.281628 -1.1456251
C 0.58876383 -0.26957375 0.5370153
N -0.766019 -0.2956353 0.5060057
H 1.1565713 -1.0064116 -0.3506329
H 0.8053219 -0.7055031 2.4645734
H 0.16616355 0.83669627 -2.4552271
H -2.9077485 -0.021495687 -0.43448436
H 1.7495489 0.5601851 1.9488429
