12

N 0.05677424 0.95566821 -0.50671153
C -0.77047647 0.88773832 0.45799787
N 0.44046922 -0.97161868 0.84890921
C -0.54528099 -0.30901251 1.30566539
O -1.75531049 1.74142275 0.72861690
C 0.92029183 -0.19836457 -0.32249096
N 0.99981071 -0.98386726 -1.52045927
H -1.74652812 2.41890329 0.03479749
H -1.13463492 -0.58969957 2.17271654
H 1.93046940 0.15008764 -0.07021055
H 1.53800937 -1.82597365 -1.33486699
H 0.06640649 -1.27528386 -1.79396426
