11

N 2.2610588 -0.6417341 0.7199966
C 1.1072934 -0.31668448 0.33936214
O 0.50773907 -0.90098655 -0.7251477
C -0.8571898 -0.49829277 -0.75564617
C -0.835207 0.8031157 0.0392681
O 0.2890906 0.61955106 0.8982858
H 2.551003 -0.061060064 1.5004253
H -1.4747871 -1.2660445 -0.27515113
H -1.1619415 -0.37489638 -1.7949394
H -0.66308486 1.6762807 -0.59863836
H -1.7239739 0.9607513 0.65218484
