11

N -0.54155505 0.8226248 1.276093
C -0.7456543 -1.1113787 -0.74075
O 0.9352573 0.6432065 -0.4533681
C 0.27028596 1.3555826 0.46702147
C 0.69524616 -0.7615458 -0.41539928
O -1.2003397 -2.2075732 -0.5365408
H -1.3177046 -0.3045835 -1.2414912
H -0.94688284 1.5174485 1.8939558
H 1.3462409 -1.1795355 -1.188908
H 0.54489815 2.4094813 0.381968
H 0.9602081 -1.1837269 0.5574193
