10

O 0.30304456 -1.9935089 0.7662045
C 0.31398448 -0.7642541 0.29133633
N 1.4476979 -0.10272423 0.019955618
C 1.1369528 1.1308562 -0.45076987
C -0.38893586 1.1953212 -0.4578558
N -0.8101636 -0.11298041 0.055188034
H -0.7419785 2.0047524 0.18768454
H -0.76313573 1.3626769 -1.4721828
H -1.7350451 -0.47650087 0.20684554
H 1.2375789 -2.2436383 0.85359377
