10

N -1.2274034 -0.70642847 -0.29518506
C -0.628086 -0.006095434 0.69574744
O -1.119849 0.20101608 1.7849321
C 0.7650121 0.55847657 0.3803419
C 1.3057808 0.1934378 -0.9278344
N 1.6833352 -0.12623104 -1.9723269
H -2.1399167 -1.098159 -0.11492099
H -0.78495866 -0.8819544 -1.1821564
H 0.70376855 1.6480674 0.46387902
H 1.442317 0.21787085 1.1675233
