10

N 0.24271944 0.20222104 -1.4284704
C 0.29444414 0.79991996 -0.21530725
O 0.5896417 1.9612238 -0.021949584
C 0.047297847 -0.11578579 0.9771335
C -1.4595493 -0.9295187 0.68010736
N -0.63455874 -1.804685 0.7321418
H -0.15347065 -0.7175111 -1.5435956
H -0.25079125 0.46032876 1.8501198
H 0.35040548 0.79171383 -2.2391033
H 0.9738613 -0.6479067 1.2089233
