10

O 1.63742588 1.25942269 0.83941616
C -0.52461739 -0.61513147 -1.04839813
N 0.63270575 0.14703281 -0.92977311
C -0.48531327 -0.02073843 1.05169396
C 0.75283812 0.57839907 0.38548011
N -1.20666842 -0.75526425 0.01816786
H 1.29412747 0.36507890 -1.65789504
H -1.11066916 0.77157991 1.47602313
H -0.79387905 -1.04580840 -2.00708957
H -0.19594941 -0.68457081 1.87237427
