10

O 1.6632819 -0.13134922 -1.4474403
C 1.1599163 0.79005104 -0.8459478
N 0.27799818 0.6482742 0.18848409
C -0.21481706 -0.66032 0.57546276
C -1.6498327 -0.8151564 0.2826932
N -2.7802563 -0.9159017 0.07543305
H 1.3823067 1.8493294 -1.0631963
H -0.14690964 1.471496 0.58676744
H 0.3598121 -1.3926249 0.0048891953
H -0.05149896 -0.8437984 1.6428543
