10

O 1.3683372 -0.35507667 -0.6277183
C 0.3187594 -0.4107075 0.89393973
N 0.3170521 1.1531914 0.60114336
C -0.96375674 -0.19918373 -0.81680495
C 0.37960187 0.4727396 -0.6150386
N -0.7433079 -1.0073826 0.40475506
H 1.2650702 1.4590199 0.8285636
H 0.9172837 -0.7348919 1.7446007
H -1.0367001 -0.8464633 -1.6908942
H -1.8223398 0.46875477 -0.72254634
