12

N -0.003416015 -0.47702 -2.1108286
C -0.009994926 -1.0383607 -0.88671094
N 0.79125804 -1.0607866 0.22196142
C -0.7381906 0.7669767 1.2781553
C 0.4653397 -0.09243566 1.280064
C 0.39038244 1.3504857 0.96456057
N -0.6012627 -1.8804567 -0.17490223
H -1.8072494 0.8184433 1.4115831
H 0.90668607 -0.4437328 2.217264
H 0.9256392 2.242092 0.67305076
H 0.53402406 0.36619422 -2.2245977
H -0.853216 -0.55139965 -2.6495988
