13

N -0.06300612 -0.39071262 -2.245315
C -0.81985563 0.18106364 0.1579969
C 0.70080143 -0.08382236 0.27771953
N 1.5478303 1.0650135 0.48562863
C -0.012466378 -0.17774594 -1.0100676
N -1.6988469 -0.8316691 0.6964122
H -2.5174043 -0.93115723 0.10719281
H -2.0199945 -0.55453897 1.6190332
H 0.9389697 -1.0369064 0.7585616
H 1.704953 1.203527 1.4779868
H 0.86735094 -0.603666 -2.6106408
H -1.0819223 1.2381889 0.23363897
H 2.4535916 0.9224255 0.051852576
