13

N -0.26073943 -0.20158031 -2.25598006
C -0.10236877 -0.08531641 -1.01696971
C -0.77849659 -0.21926008 0.27527897
N -1.02974416 -1.55726566 0.75979936
C 0.70349816 0.21849462 0.18063024
N 0.99183671 1.60529570 0.45293812
H 0.59494346 0.05502639 -2.75230269
H -1.81018011 -1.96759864 0.26013930
H 1.78389407 1.91881138 -0.09774291
H 1.40681366 -0.56028928 0.48908663
H -1.45532088 0.59815479 0.53151380
H -1.28054457 -1.52649612 1.74332302
H 1.23640823 1.72202353 1.43028537
