13

N -1.3183584 0.4868723 -1.249713
C 0.78629875 0.20552106 0.09535632
C -0.76403517 -0.09446896 -0.06472435
N 0.598215 -2.3931892 -0.37622082
C 0.6552206 -1.1851689 -0.19767766
N 1.2132077 0.5285384 1.4313962
H 0.9959048 1.497441 1.6371074
H 2.21336 0.39762565 1.5285301
H 1.1421839 0.81602407 -0.74157804
H -1.6270416 1.4443443 -1.11023
H -1.2451137 0.042433575 0.90824544
H -0.5430642 -1.6961823 -0.2629592
H -2.1067781 -0.049791127 -1.5975326
