10

N -0.97444733 0.57624844 0.07749241
C -0.73054689 -0.41344863 1.02529851
O 0.22463738 1.37486671 -1.74088699
C 0.10024854 0.63232589 -0.79968455
C 1.03417006 -0.45341388 -0.26272003
N 0.37465790 -1.03511478 0.90154544
H 1.21853493 -1.21235334 -1.03018910
H -1.46029871 -0.61275932 1.80324716
H -1.78889226 1.16507524 0.01409356
H 2.00193684 -0.02142626 0.01180401
