10

N -0.16798966 -0.9408455 1.0541368
C -0.7172963 0.20801845 1.0945729
O 0.7569354 0.77089643 -1.9504296
C 0.5691153 -0.9892224 -0.20410891
C 0.34571424 0.35641408 -0.8960089
N -0.47216627 1.0318304 -0.00021898297
H -0.8213557 1.9652437 -0.14466035
H -1.3421843 0.5585264 1.909512
H 1.6367573 -1.152707 -0.025327925
H 0.21247016 -1.8081545 -0.8374672
