10

N -1.3171962 -0.6424419 -1.1629407
C -1.2091278 -0.7483576 0.08973765
O -0.1821744 -0.21645094 0.7734064
C 0.7665259 0.47700128 -0.029564409
C 1.8208501 0.9808823 0.8538963
N 2.6775556 1.3995165 1.5091062
H -2.1604762 -1.1109666 -1.4879841
H -1.8795071 -1.254967 0.7884257
H 0.28724286 1.3098373 -0.55421346
H 1.1963077 -0.19405328 -0.77986914
