11

O 2.29229926 0.55723069 0.22716606
C -1.14829025 0.30564581 -0.46159324
C -0.95073676 -1.08651210 0.03908957
C 1.12279521 0.26341398 0.12882911
C 0.44080484 -1.05292159 0.53564820
N 0.10527209 1.03852705 -0.35111752
H 0.28574057 1.95693173 -0.72431175
H -1.50983682 0.23119639 -1.49993742
H 1.03837805 -1.95290530 0.36014970
H 0.29038693 -1.02644668 1.63337392
H -1.96681315 0.76584084 0.11270349
