11

O 1.7010819 -1.6055133 -0.38130522
C -0.3736635 -0.92013645 0.77691466
C -0.5369065 1.1081727 -0.3297618
C -1.309692 0.20522006 0.5731742
C 0.8326091 -0.7908387 -0.16729954
N 0.7159335 0.46303853 -0.69709295
H 1.3704455 0.7966818 -1.386735
H -1.1769358 1.3257049 -1.2000833
H -0.013036526 -0.7326681 1.8079976
H -0.8199798 -1.9186473 0.8174361
H -0.38985583 2.068986 0.18675523
