11

O 0.2613682 2.1369643 0.9824295
C 0.15465449 0.6463722 -1.008484
C -0.06859169 -1.2256536 0.23697773
C 0.054243483 -0.86711764 -1.119961
C 0.1786567 1.0461357 0.472938
N 0.08074755 -0.15403584 1.1493956
H -1.1046337 -1.2595431 -0.44781005
H 1.0908399 0.9631025 -1.4835559
H -0.64140177 1.1672416 -1.550326
H 0.012018635 -0.20934473 2.1538272
H -0.01790161 -2.2441208 0.6145692
