11

O -0.8139739 2.1587284 -0.7005639
C -0.42108935 1.0837845 -0.31139517
C 0.34659183 0.0008590125 -1.076557
C 0.5441582 -1.0869838 -0.05586186
C -0.016411394 -0.6950884 1.0908438
N -0.5895935 0.5806383 0.96229964
H 1.2841791 0.42167842 -1.4602824
H -0.23766935 -0.3165677 -1.9461389
H 1.0534655 -2.022676 -0.23032239
H -0.07726326 -1.2103075 2.0404541
H -1.0723939 1.0859356 1.6875242
