11

O -0.19326645 0.82351553 1.4932761
C 0.185641 -0.9035388 -0.14137372
C -0.9408901 -0.1561893 0.5706121
C 0.94534624 0.41679025 -0.52369416
C -0.23110668 1.1487514 0.13634145
N -1.397141 1.0986614 -0.44115004
H 1.9000641 0.5426428 -0.020109732
H 1.0131387 0.60225093 -1.5952461
H -1.8425809 -0.5574832 1.015405
H 0.7411809 -1.5700103 0.5235817
H -0.18038574 -1.4453909 -1.0176426
