10

O 0.7759422 1.1630516 -0.666121
C 0.78596044 -0.75610596 0.1687707
C 0.6439368 0.5983536 0.97260714
N -0.093272515 0.051985826 -0.7246093
C -0.8527123 0.5170996 0.47502935
H -1.3649738 1.4606373 0.28189147
H -0.43271258 -0.17077462 -1.6751323
H 0.29324588 -1.6496245 0.56593454
H -1.5051506 -0.25305402 0.9005537
H 1.7497364 -0.961569 -0.2989242
