9

O 0.7550983 0.24730438 -2.0763264
C 0.26567444 0.110736206 -0.8365463
N 0.9896103 -0.3109899 0.17765623
N 0.078789085 -0.28109986 1.1810075
C -1.1059796 0.14635612 0.71927035
N -1.0296946 0.40809152 -0.5680522
H 1.6861656 -0.010888034 -2.0514815
H 0.3433955 -0.56057405 2.1114316
H -1.983059 0.25106356 1.3430408
