9

O 1.27303214 0.14760220 -1.46363357
C 0.35110686 0.01408311 -0.46906492
N -1.71858382 0.54578509 0.21982382
N 0.91653088 -1.13687937 1.72506805
C 0.67787260 -0.51960134 0.70108538
N -0.93554439 0.48963647 -0.75302089
H 0.77595583 0.16135741 -2.29503929
H 1.27205218 -0.57889683 2.50198713
H -2.61242226 0.87691320 -0.16720562
