11

C -1.3065355 0.10419707 -0.78439665
O 0.06876391 -0.015549618 -1.084037
C 0.81785417 -0.53178227 -0.016345764
C 1.0226185 0.49256235 1.0875838
O 1.2824913 0.20778456 2.2282174
H -1.748582 -0.87246835 -0.54144996
H -1.4839622 0.7899918 0.057337567
H -1.7927212 0.50523615 -1.6756696
H 1.8076231 -0.77735054 -0.41943005
H 0.38375127 -1.449507 0.4074177
H 0.9486984 1.5468856 0.74077255
