11

O -0.69812604 0.86652326 -0.75154839
C -0.24416550 -1.08156016 0.39285524
N 0.62400955 0.04096315 0.79697323
C -0.70783312 -0.81153401 -1.02578036
C 0.31414461 1.20042911 0.21967407
O 0.69227679 2.32747581 0.37420597
H -1.07779929 -1.14882837 1.10618653
H 0.32848257 -2.00852709 0.42516124
H 0.21516271 -0.85595222 -1.64130331
H -0.60102981 1.40476779 -1.55017875
H 1.15487756 0.06624278 1.65375457
