11

O -0.6495864 2.1703112 -1.10841
C 0.6765029 -0.11988761 1.1179587
N 0.08875017 -0.0741517 -0.9369801
C -0.24507526 -0.94958687 0.23967957
C -0.24696945 1.276057 -0.42625332
O 0.06037795 1.2231408 0.8405098
H 1.173811 -0.13245924 -0.5223286
H 0.09608024 -1.9692792 0.06433491
H 0.5793543 -0.25749174 2.197136
H -0.2061961 -0.26356593 -1.8918083
H -1.3270494 -0.9030871 0.42616156
