11

O -2.0133076 0.9883486 1.3795854
C -1.0805063 0.61039335 0.7260093
N -0.97603905 -0.5509591 -0.016019154
C 0.4073632 -0.8063831 -0.35832074
C 0.94121027 0.6312427 -0.32349178
O 0.08044458 1.309517 0.59182125
H -1.6050066 -1.2973636 0.23353185
H 0.9054876 -1.4444451 0.38091922
H 0.51204664 -1.2597728 -1.347826
H 0.8597838 1.1111717 -1.3036326
H 1.9685235 0.7082504 0.03742332
