10

O 0.5868901 -0.51955587 1.7290301
C -0.95331025 0.8730978 -0.71792626
N -1.3346992 0.4219204 0.42984548
C 0.40694225 0.22407335 -0.77164483
C -0.022188772 -0.28696188 0.5462792
N 0.07820146 -1.2338684 -0.5316432
H 1.3616382 0.54108524 -1.1702294
H 0.9621515 -1.7263657 -0.3849471
H -1.5524147 1.446711 -1.417916
H 0.46678922 0.25986403 2.2891521
