10

O -0.29310513 1.2328022 1.3705981
C 0.7827688 -0.7665727 -0.1412685
N 1.1841923 0.65653396 -0.35340953
C -0.08177321 0.7180288 0.16698547
C -0.59322953 -0.9210038 -0.4954084
N -1.1895158 0.26966333 -0.60413265
H -1.2564834 1.2167565 1.4912574
H 1.1814429 0.86014587 -1.3525796
H -1.1351882 -1.8652965 -0.5609115
H 1.4008917 -1.4010575 0.4788692
