13

C 0.22751378 -0.30818477 -0.40763423
N -0.6458203 0.36676717 0.31591314
C -1.799155 -0.22687596 0.96830505
O 1.9610697 1.3787832 -0.3830201
C 1.499326 0.15753788 -0.9267069
O 0.09646939 -1.5661136 -0.6763121
H -2.723173 0.03556219 0.4473326
H 2.6352186 1.1465293 0.26447496
H -0.4313514 1.3476421 0.42519978
H 1.443011 0.2545705 -2.0162318
H 1.264929 -1.3895513 -0.95679224
H -1.6698298 -1.3088527 0.9395926
H -1.8582077 0.11218593 2.0058792
