13

C -0.4032747 0.61782 -1.571382
N 0.31371385 -0.5545537 0.49489078
C -0.045076977 0.5262261 -0.18188015
O -0.28123394 1.6740203 0.36788467
C 0.31195217 -0.6322019 1.9443902
O -0.67347556 -0.5994142 -2.228794
H 1.33354 -0.6496392 2.3349752
H -0.21386012 -1.5329959 2.2705588
H 0.32478207 1.2429678 -2.1037526
H -0.0015784346 -0.7475021 -2.9046412
H -0.20033371 0.2499219 2.3277807
H 0.4216739 -1.3909435 -0.061793935
H -0.8868284 1.7962943 -0.6882364
