13

C 0.5856419 -1.582544 -1.1665539
N 0.23001829 -0.64305973 -0.12612022
C -0.055223938 0.6595091 -0.37609312
O -0.07806012 1.1687602 -1.482284
C -0.3376321 1.4768316 0.8789258
O -0.56401795 0.69453573 2.0378284
H -0.109971486 -2.42865 -1.185591
H 0.5341941 -1.0551234 -2.1199207
H 1.6039 -1.9603496 -1.0233299
H 0.27148032 -0.9132449 0.84557444
H -1.1690286 2.1563077 0.65214825
H 0.5467106 2.0913982 1.0835284
H -1.458011 0.33562908 1.9818872
