10

C 0.99452742 -0.05660093 0.49245730
C 0.04469837 0.94126873 -0.07733678
N -0.24868893 0.21418250 1.19966625
C -0.74519002 0.23356719 -1.13333082
N -0.84463506 -0.99837803 -0.82399778
C -0.09966917 -1.05004582 0.43219157
H 1.97583264 0.00297157 0.94168117
H 0.19519896 2.01144848 -0.00270816
H -1.17164369 0.67514987 -2.02807652
H -0.10043056 -1.97356366 0.99945414
