10

C 1.0387188 -0.39281064 -0.039569333
C 0.15769807 0.6076414 -0.70701414
N 0.64862186 0.8016197 0.69542426
C -1.245802 0.10484984 -0.57557315
N -1.3450247 -0.5788995 0.4948973
C 0.0155230705 -0.5027779 1.0228847
H 0.21575004 -0.9145758 2.005231
H -2.063239 0.27807033 -1.2678298
H 0.5166956 1.3112291 -1.4483573
H 2.0610585 -0.71434665 -0.18009348
