11

O -0.27992478 1.6450619 2.1624794
C -0.21313494 0.8702154 1.2319382
C 0.7531697 1.0191252 0.13532306
C 0.7820652 0.13367401 -0.8739222
N -0.10327912 -0.91987425 -0.8758088
C -0.9950815 -1.0431721 0.15569253
N -1.0885447 -0.24722186 1.152575
H 1.4353306 1.8588704 0.1650088
H 1.4673476 0.18393795 -1.7125189
H -0.09995362 -1.5982206 -1.61975
H -1.6579944 -1.9023958 0.07898258
