11

O -1.3167974 -0.20876563 2.4668403
C -0.44056156 -0.61264503 -1.2540013
C 0.83313394 0.97819185 0.15817156
C -0.4110767 -0.3227658 1.6903954
N 0.39141545 0.4880935 -1.0368105
C -0.8617922 -1.6420254 -0.5389973
N 0.46400407 0.70173717 1.3528463
H 1.5951426 1.7526537 0.032059994
H -0.87709475 -0.72309464 -2.257948
H -0.16502713 -1.3258615 1.2503763
H 0.7886538 0.91448164 -1.862933
