11

O 0.82201727 0.85528200 1.13988497
C -0.46903123 0.71478417 1.08492109
C 1.51345923 1.23606265 -0.09944709
C 1.25125853 0.28233141 -1.07339204
N 0.70615051 -0.98406981 -0.96242871
C -0.36247220 -1.21642390 -0.33078839
N -1.05231871 -0.28515452 0.46862996
H -1.08264916 1.43896857 1.62300618
H 1.57467411 0.55914955 -2.07677765
H -0.85565989 -2.18370724 -0.37751382
H -2.04542841 -0.41722264 0.60390516
