11

C -1.0074106 -0.45327008 1.0038655
C -0.018712178 1.2456373 -0.54135364
C -0.21705395 -0.27025068 -0.38265038
O -0.6155465 -0.92683387 -1.4086928
C 0.85195243 -1.0327212 0.2603312
N -1.5719565 -0.64265674 1.9935634
H 0.6802893 1.4107372 -1.3650078
H 0.36396748 1.7094332 0.37385115
H 1.8032897 -0.62604666 0.6020985
H -0.9804768 1.6954288 -0.7995597
H 0.7116578 -2.1094575 0.26355463
