12

C 0.6295753 -0.4616481 -0.77288383
N 0.118873484 0.64815575 -1.1382635
C -0.4724111 0.079673514 1.1225675
N 0.22015387 -1.0007415 0.43028808
C -0.8119253 1.0132966 -0.06857712
O 1.5159135 -1.1802162 -1.4728533
H 0.18951537 0.5768218 1.8440131
H -0.71111023 2.0695684 0.19401358
H -1.8415433 0.85089916 -0.4097031
H 0.85933876 -1.604955 0.9232444
H -1.3571469 -0.28641433 1.649695
H 1.6607665 -0.7044401 -2.3015404
