10

C -0.86650620 0.31084233 0.71165764
C 0.60617831 -0.36720781 -1.20397092
O 1.03164983 -1.38963255 -1.68314803
C 0.55066480 -0.06740894 0.27405898
H -1.24637858 1.16021288 0.13149262
H 0.20626290 0.44374180 -1.85271932
H -1.56154107 -0.52471486 0.57578229
H 0.93324378 -0.93416352 0.82132845
H 1.23171919 0.77515453 0.45734546
H -0.88529278 0.59317613 1.76817303
