10

C -0.8494578 -0.20060769 -0.70139426
C 0.79458994 0.8096361 0.6644561
O 0.0068464405 -1.393815 1.2540752
C 0.34265855 -0.52081794 0.41213685
H 0.8678676 1.2086236 1.6750637
H 1.1018093 -0.8109784 -0.40078312
H -1.0934715 -1.2066962 -1.0412375
H -1.6960452 0.22649918 -0.16234441
H -0.5469137 0.43119448 -1.5344977
H 1.0721164 1.4569618 -0.16547477
