10

O 0.67924787 -1.32148120 2.17785283
C 0.72702467 -0.20185838 0.11029928
C -0.34694743 -0.19080508 -0.86554903
N 1.05650993 0.42022275 -0.92488492
O -1.32742731 1.82160127 -0.07330115
C -1.45497194 0.80951790 -0.71793713
C 1.29038862 -0.61266762 1.41894356
H -0.52953318 -1.05042838 -1.50654345
H -2.39934777 0.55536099 -1.23983253
H 2.30505657 -0.22946205 1.62095283
