9

N -0.4487122 1.6985142 -0.14324217
C 0.081615955 -1.0133601 0.18991187
O -0.27963862 -2.0879476 0.6200396
C -0.7760636 0.17482759 0.37474972
C -1.7613416 0.88684666 0.7656384
C -1.3475428 2.480788 0.16531068
N 1.2302989 -0.759108 -0.4841858
H 1.8508674 -1.5366329 -0.65037125
H 1.4505167 0.15607198 -0.8378509
