11

O 0.19111161 -1.9088247 1.1281482
C 0.029593062 -0.7660621 0.4135958
C -0.87658924 -0.3683736 -0.53672147
C -0.50376767 0.96448725 -0.90657425
C 0.59607786 1.3149412 -0.17649627
N 0.9175345 0.24153763 0.6343739
H -0.5070929 -2.5198128 0.8661987
H -1.702561 -0.95048624 -0.9223425
H -1.0083498 1.582327 -1.6355175
H 1.1816467 2.221108 -0.15289098
H 1.6823967 0.1891588 1.2882266
