11

O 1.2551405 -0.6576569 -2.10654
C 0.62251186 -0.34790182 -1.1177567
N 1.1417716 0.031009553 0.09912148
C 0.12917615 0.3386171 1.0825222
C -1.1396165 0.0937011 0.3061522
C -0.86121184 -0.29264686 -0.93734217
H 2.132884 0.08224302 0.26175514
H 0.19244735 1.3772603 1.431867
H 0.19562265 -0.3125797 1.9634726
H -2.1195257 0.23049743 0.7499027
H -1.5492004 -0.54254335 -1.7331545
