11

O -0.040074784 -0.50289494 -1.7099147
C -1.0716034 -0.2991913 0.1637401
N -0.074064724 1.5970984 -0.70796525
C 1.0450033 -0.2407628 0.4692427
C -0.24510737 -0.70717245 1.0978945
C 0.27411813 0.31771937 -0.783648
H -0.6418072 1.7978284 -1.5344542
H -2.0691261 -0.23140045 -0.2323085
H 1.544035 0.55563724 1.022932
H -0.4483668 -1.2390326 2.0188468
H 1.7269944 -1.0478287 0.19563463
