11

N 1.179409 -2.0435324 0.59456015
C 0.60854936 0.46000272 0.6846278
C 0.9820781 -0.8905718 0.82716924
C -1.2270128 0.4593351 -0.27385142
C 0.12566157 -0.022451635 -0.84064907
O -0.69974834 0.8113265 1.0366579
H -1.9949536 -0.31876856 -0.15907755
H 1.3715106 1.2198861 0.85329807
H 0.5631793 0.70404375 -1.5401845
H -1.6816679 1.3446648 -0.7395207
H 0.7729947 -1.7239348 -0.44302946
