11

N 2.33626620 -0.12385219 -0.00790073
C 0.04384022 0.66262054 0.86646106
C -1.26669886 -0.63594249 -0.03076943
C -0.19317514 0.26885742 -0.63064376
C 1.09334708 0.05875549 0.06345073
O -0.92291032 -0.27556106 1.32029429
H -1.17924442 -1.71508110 -0.20521528
H -2.28022700 -0.29427422 -0.26765909
H 0.09399397 1.62796735 1.35683877
H -0.31693070 0.87446818 -1.52232550
H 2.59173910 -0.44795741 -0.94253076
