11

N 1.826003 -0.9283482 0.21898653
C -0.7622466 -0.8818716 -0.32115176
C 0.31271598 1.0647435 -0.016531572
N -0.99282616 1.2249753 -0.3103047
C 0.5668809 -0.34470373 0.039762475
N -1.6544671 0.061752845 -0.49691132
H 0.57866234 -0.29654092 1.1872383
H -1.5183228 2.0839531 -0.31172177
H 1.6928291 -1.9386955 0.23932007
H -1.0400984 -1.9252278 -0.41151547
H 0.9908698 1.8799627 0.18282928
