11

N 0.29253006 0.3066773 2.0002058
C 0.11477636 0.101861015 0.7637003
C -0.6326522 0.84449506 -0.34056273
N -0.4252662 0.08412818 -1.5755388
C 0.2916443 -0.9164234 -1.2481608
N 0.64635414 -0.9915421 0.0900714
H -0.17404553 1.1615278 2.298289
H -1.7037667 0.9132416 -0.119871
H -0.25723854 1.8674378 -0.45783597
H 0.6236362 -1.6835948 -1.9404842
H 1.224028 -1.6878086 0.53018725
