11

N -0.5911328 1.6912475 0.8497423
C 0.017250225 0.16219532 -1.1325899
C 0.5799661 -1.543783 0.027400643
N 0.41173035 -1.1642028 -1.2049017
C -0.04978474 0.58810866 0.22422118
N 0.31849766 -0.5425879 0.92818123
H 0.88463145 -2.5334008 0.34403157
H -0.51552695 2.4849725 0.20905483
H -0.16536641 0.772254 -2.007395
H -1.1930596 0.67412066 -0.17203501
H 0.30279467 -0.5889242 1.9342898
