12

C 0.28661012 0.01762869 -2.47170602
C 0.02126260 -0.02791710 -0.04158662
O 0.11442871 0.51938152 -3.55773031
N -0.17224363 0.54698811 -1.29399585
C -0.17980001 -0.15468505 2.26241859
N -0.43246007 0.51600163 1.00179778
H 0.39233323 -1.09017706 2.16736024
H 0.83776709 -0.92975426 -2.32549701
H 0.59052147 -0.96851102 -0.07189958
H -0.68969161 1.41815578 -1.33737298
H -1.13563335 -0.37296729 2.74620602
H 0.36690549 0.52585606 2.92200563
