10

O -1.04924459 -0.52136902 1.72158279
C 1.15038973 -0.36438865 0.43475017
C 0.35235395 0.81117718 -0.05825502
C -0.05068739 -0.19585774 0.91893290
N -0.13972797 0.80764350 -1.43897136
N -0.94116813 -0.11167926 -1.65571133
H -1.20871365 -0.03632639 -2.64616789
H 2.08913329 -0.87708198 0.33431090
H 0.61980737 1.83459865 0.21500340
H -0.82214279 -1.34671626 2.17452559
