10

N -0.81624573 -1.3014237 -1.3174701
C 0.042864226 0.19527823 0.10294593
N -0.7786205 -1.8513839 -0.15399133
N -0.3213127 -0.051574614 -1.1762139
N 0.51726943 1.4299768 0.5274512
C -0.2557525 -0.9815031 0.75272626
H 1.2491753 1.8202189 -0.051739432
H -0.12764746 -1.2444879 1.7918367
H -0.31464398 0.56701255 -1.9710546
H 0.80491394 1.4178867 1.4955093
