10

N 0.97669625 1.4184842 0.5580601
C 0.2597324 0.31796712 0.10060604
N 0.24340671 -0.024587255 -1.1829511
N -0.47427827 -1.1398975 -1.1869147
N -0.9371653 -1.5486498 -0.03009998
C -0.48273554 -0.6362386 0.8247794
H 0.5009773 1.9449546 1.2765176
H 1.2545342 2.0212717 -0.20522779
H -0.64782435 -1.650156 -2.0374699
H -0.69334346 -0.7031485 1.8827004
