10

N 0.9741783 1.4218696 0.55691063
C 0.2600128 0.31934515 0.10051653
N 0.2450388 -0.024479227 -1.1827483
N -0.47240135 -1.1426332 -1.1874238
N -0.9351762 -1.5505042 -0.02893925
C -0.482978 -0.63786435 0.82610047
H 0.50021726 1.9509203 1.2748287
H 1.2556031 2.025177 -0.20479071
H -0.64862293 -1.6531289 -2.0375853
H -0.6958717 -0.70870197 1.8831313
