12

O -0.03256975 -1.5184551 1.9443867
C -0.63902134 -0.4153315 1.3361263
C 0.048712917 -0.067768134 0.047325846
N 1.187985 -0.57198834 -0.3205499
N 0.5357841 0.8085726 -1.8409914
C 1.5656048 -0.00452412 -1.5474036
N -0.39257222 0.8792937 -0.8239541
H 0.895861 -1.5175804 1.6761549
H -1.6885512 -0.6694047 1.1479273
H -1.3511804 1.1245471 -1.0098772
H -0.6254927 0.4757818 1.9848245
H 0.49543968 1.4768572 -2.5939693
