12

O -0.80514148 -1.10705596 2.05270079
C 2.10939525 0.48899848 -0.39614267
C 0.02535370 -0.03228855 0.08671702
N 1.30810511 0.71451730 -1.45204329
N -0.02306404 0.49785193 -1.16523914
C -1.18090978 -0.47755240 0.86225156
N 1.23046962 -0.02166830 0.57158226
H -0.68112869 0.26558575 -1.89094542
H -1.81905215 0.40310183 1.04196727
H 1.55870659 1.19087825 -2.30379844
H -1.76601582 -1.19315729 0.27314585
H 0.04328176 -0.72921122 2.31980389
