10

N -0.1592583 -0.7495832 -0.84524626
C 1.0593356 -0.2880572 -0.41975656
C 0.83738965 0.59433997 0.6085309
C -0.5700875 0.66578674 0.80961853
C -1.1570486 -0.1746204 -0.1029153
H -0.29862413 -1.4113052 -1.589081
H 1.9759108 -0.626717 -0.88057387
H 1.5930684 1.1334809 1.1624192
H -1.0855938 1.2685941 1.54453
H -2.195092 -0.4119188 -0.28752553
