11

N -0.4118921 -0.55268323 -1.462386
C 0.19635855 -1.2949195 -0.63902664
O 0.7723602 -0.81804806 0.4743406
C 0.6980444 0.59543014 0.6311352
C -0.7311342 1.0804598 0.80017614
O -1.0289181 2.2433085 0.7067769
H -0.78948754 -1.0955163 -2.2322707
H 0.34229368 -2.3771012 -0.68900293
H 1.1588932 1.1143855 -0.2136608
H 1.2571765 0.810125 1.5473858
H -1.4636943 0.29455927 1.0765321
