11

N -0.85270387 -0.94027275 -0.04932135
C 0.35125846 -0.67295927 -0.8470275
O -0.1135964 0.63127804 -1.2188269
C -0.6520907 0.5271751 0.11522862
C 0.6383158 0.5038322 0.94736975
O 1.3484089 -0.4451555 0.12389203
H -1.4723232 1.2060295 0.35369122
H 0.7094099 -1.3201942 -1.6471251
H 0.49911803 0.10960833 1.9577653
H -1.6312089 -1.0544147 -0.69772226
H 1.175412 1.455073 0.96207625
