11

C 0.71726710 0.30969760 -1.12676590
C -0.20624904 0.19748409 0.05407212
O -1.42286484 0.77942133 -0.22815825
C -0.08086585 -0.86293432 1.05356721
O 0.33182435 0.48636888 1.32139995
H 0.90361495 1.36385884 -1.35020957
H -1.92986861 0.84008928 0.59175173
H 0.25683801 -0.15336406 -2.00390542
H -0.96646293 -1.18646044 1.60370982
H 1.66941429 -0.18315399 -0.91349760
H 0.72735282 -1.59100705 0.99803622
