12

C 0.24664848 -0.15267383 -2.13697003
N -0.62273604 -0.28475253 -1.22874813
C -0.17459794 -0.78184617 0.06339373
N -0.62136112 0.08606687 1.12174125
C 0.18165177 0.99254703 1.74474149
O -0.21519065 1.84938771 2.50184443
H -1.61828087 0.24972921 1.20761308
H -0.06627270 0.18777611 -3.12444736
H -0.59993594 -1.77965538 0.22840428
H 1.31694668 -0.35355449 -1.98987085
H 1.24981095 0.85201019 1.49239702
H 0.92331763 -0.86503465 0.11990076
