11

C -1.305731 0.102553055 -0.7822596
O 0.06844432 -0.01695939 -1.0838953
C 0.81705683 -0.5302909 -0.017288854
C 1.0226548 0.49401876 1.084925
O 1.2898946 0.20819277 2.224071
H -1.7480179 -0.8736181 -0.5342168
H -1.4824649 0.79257035 0.056685627
H -1.7930588 0.49985862 -1.6733233
H 1.8051709 -0.77601486 -0.42332703
H 0.38441485 -1.448116 0.40787712
H 0.9416363 1.5478057 0.7407521
