11

C -0.9751028 0.540065 0.4095264
O -0.13681139 1.285107 -0.4655195
C 0.9380462 0.3728452 -0.5829854
C -0.34859848 -0.8300304 0.11200917
O 0.14134824 -1.6293119 1.0371957
H 1.223943 0.17068388 -1.6195396
H 0.90125954 -0.78721434 0.33558536
H 1.8150939 0.699279 0.0008301464
H -0.712681 -1.2627946 -0.8368934
H -2.0322425 0.6434918 0.14576404
H -0.8142549 0.7978792 1.4640269
