10

C -0.99092585 0.3844377 -1.3132242
O -0.53916025 -0.39419124 -0.19551665
C 0.5214085 0.095679484 0.4349999
O 1.1137503 1.1049234 0.14772867
C 0.9652618 -0.76476306 1.6167265
O 0.4065992 -1.7744048 1.9501134
H -1.849805 -0.1545233 -1.7086563
H -1.279656 1.3877459 -0.9872323
H -0.20341417 0.4634248 -2.0673559
H 1.8559413 -0.34832886 2.1224167
