12

O -0.5417529 0.6158563 -1.6999444
C 0.18743849 1.172894 -0.63422155
C 0.36202088 0.16323288 0.4865561
C -0.71179754 -0.78784454 0.8354332
N 0.42366722 -1.2193815 0.018361788
H -0.2355541 -0.30160028 -1.7632278
H -0.3640613 2.0490863 -0.2745785
H 1.1818591 1.5142708 -0.96337587
H 1.0446403 0.45984307 1.2820973
H -1.6567398 -0.7440829 0.30357224
H -0.7722106 -1.1425996 1.8630131
H 1.0824903 -1.7796743 0.54631454
