12

O 0.7348076 0.6114339 1.3364332
C -1.5616953 -0.16330852 -1.3076775
C 1.8436018 -0.21390234 0.9948695
C -0.3098583 0.53123516 0.50236785
N -0.34680274 -0.21029575 -0.5159568
H -1.9968659 -1.1669012 -1.3539611
H 1.5523112 -1.2700864 0.9921436
H -2.324918 0.5318451 -0.92469335
H -1.1070096 1.2006389 0.84553635
H 2.2264981 0.043854393 0.0021356943
H -1.3081517 0.12904365 -2.3319926
H 2.5980828 -0.02355682 1.7607955
