12

O 0.74649577 0.33383587 1.42518243
C -1.61923543 -0.03113034 -1.24606977
C 1.92321487 -0.20600466 0.83258257
C -0.33738723 0.32995532 0.63866717
N -0.35390382 -0.11325339 -0.54095621
H -1.47990366 0.55463695 -2.16064011
H -2.43457742 0.42253356 -0.66140677
H 2.19719168 0.35673499 -0.06565421
H 2.70111184 -0.12014427 1.59391032
H -1.92585174 -1.03788345 -1.54797787
H -1.18592162 0.76478142 1.17925189
H 1.76876682 -1.25406176 0.55311070
