11

C -0.63167775 1.4017863 -1.7080351
C -0.6626609 0.05845583 0.19158019
C 0.16774587 -0.58792716 1.1952
C -0.051400572 1.1193445 -0.52308935
O 0.33066052 0.08974315 2.2015533
N 0.61437297 -1.8699579 1.0400076
H -1.5928993 0.9526478 -1.948883
H -0.1574218 2.0301542 -2.45672
H 0.9343286 -2.328992 1.8798614
H 0.8917255 1.5801427 -0.22024298
H 0.1572267 -2.4453974 0.34876782
