11

C 0.925765 0.27925852 -0.629604
C 0.013743529 -0.6309246 -0.5260976
C -0.6888033 -1.0193988 0.69765246
C 1.6390032 1.3791977 -1.0415636
O -0.11539676 -1.4988633 1.6599525
N -2.050343 -0.81268686 0.65804803
H 1.147616 2.2567165 -1.4588726
H 1.486348 0.61245346 0.33858013
H 2.7095017 1.4277807 -0.8649108
H -2.4987233 -0.74623257 -0.24074951
H -2.5687113 -1.2473007 1.4075649
