10

N -1.3236021 1.3609525 -1.2559034
C 0.7099771 0.38742158 -0.13115203
C -1.3129611 0.2952691 -0.698295
C -0.60401624 -0.25077808 0.39208493
C 0.7781275 -0.91489273 0.57773244
H 1.0176526 -0.9694541 1.6369715
H 0.85474575 0.1399659 -1.1838775
H 1.0497828 -1.8075134 0.017850544
H -0.1515395 1.6283584 -0.67714036
H -1.0181668 0.13067098 1.321729
