10

N 0.0030590547 0.7920654 -2.123889
C -0.6793247 -0.2589423 1.1474112
C 0.72191715 0.06237633 1.2359241
C 0.22807533 -0.7110106 -0.057582945
C 0.10923528 0.07249316 -1.1584324
H 0.77230614 1.387548 -2.412704
H 0.48273808 -1.7560284 -0.19243579
H -1.0580486 -1.1751268 1.6138874
H 0.8957769 1.1256653 1.0136534
H -1.4757346 0.46095988 0.9341676
