11

N 0.51583034 1.1306703 2.1001534
C 0.32622793 0.0664036 -1.1956569
C 0.93068606 0.97859514 -0.3154849
C 0.26711416 0.5978301 0.98403686
C -0.780431 -0.7442084 -0.54861456
O -0.6962182 -0.38358068 0.8157507
H -0.65896523 -1.8259956 -0.6575068
H -1.7578977 -0.45204902 -0.9530869
H -0.09015975 0.7437295 2.8255043
H 0.47911248 0.07449413 -2.2726758
H 1.464701 -0.18588917 -0.7824198
