11

N -0.5357258 -0.7367414 -2.3259575
C -0.6485364 0.27950928 1.0377845
C -1.3850973 -0.32924205 -0.08744781
C -0.31128561 -0.39507693 -1.1189616
C 0.8572394 0.20007873 0.75917524
O 0.9315554 -0.060966942 -0.64154035
H 1.3324556 -0.6253694 1.3007113
H 0.32870466 -0.72594136 -2.8642724
H -1.0063 1.3250226 0.94367576
H -0.9701105 -0.052136052 2.028536
H 1.4071004 1.1208634 0.96829706
