9

N -0.5254964 0.2020128 0.018310634
C 0.8018106 0.015028461 -0.23648518
N 1.5483819 1.0820578 0.117515564
C -1.4559629 -0.8113882 -0.17853111
O -2.6363182 -0.6789345 0.02198136
H 1.6260546 -0.10234681 0.69821554
H 2.5012965 0.9244751 -0.21896583
H -0.8839977 1.1067756 0.316708
H -0.97576815 -1.7376804 -0.5387489
