9

N 0.24973900 -0.02105456 -1.77350094
C 0.73828528 -0.08709534 -0.53566759
N -0.25236646 0.03104254 0.39528871
C 0.03852242 -0.01193539 1.75368429
O -0.80059353 0.09107289 2.61272837
H 0.89015455 -0.09881333 -2.54585251
H -0.73192455 0.09493911 -2.02196561
H 1.11601100 -0.15069554 1.92778760
H -1.24782742 0.15253961 0.18749729
