9

N 1.2667984 -0.15551922 -1.5660313
C 0.21990813 -0.02173421 -0.8629707
N 0.29440165 -0.03534383 0.52184904
C -0.7850346 0.08989402 1.3647158
O -0.7101417 0.07322942 2.568992
H 1.0450094 -0.12275738 -2.5542004
H -0.8028467 0.112069376 -1.2317636
H 1.210614 -0.14875324 0.94002384
H -1.7387083 0.20891505 0.81938493
