12

O 1.0422281 1.1030685 -1.0113206
C 0.6000935 1.015784 0.31831554
C -0.44550112 -0.08871901 0.4480169
O -1.4924704 0.18601479 -0.4448633
C 0.15676823 -1.4367225 0.112700105
O -0.3234799 -2.1408484 -0.74079937
H 0.2366241 1.1334339 -1.549282
H 0.16006507 1.9590033 0.6715855
H 1.471837 0.7921025 0.943592
H -0.80569 -0.13229898 1.4900551
H -1.640588 -0.6388786 -0.9384961
H 1.0401133 -1.7519397 0.7004963
