12

O 1.71513738 1.23913720 0.46648833
C 0.33942125 0.96733644 0.48281573
C -1.43303027 -0.53415539 -0.41464360
O -1.78332469 -1.62193236 -0.01064431
C 0.02488941 -0.16989230 -0.49561454
O 0.83070211 -1.27747908 -0.18704004
H 0.26210649 0.17170236 -1.51389037
H -0.17696559 1.88560610 0.18690713
H 2.15531048 0.38207498 0.55937011
H -0.00794263 0.67430825 1.48830951
H -2.16049109 0.24118006 -0.72005158
H 0.23418705 -1.95788648 0.15799372
