9

N 1.05933565 0.29725700 -1.41357915
C -0.91220125 -0.54911049 1.39002369
N -0.32755065 0.11293844 0.32202598
C 0.63010386 -0.49907122 -0.43845330
O -1.76539683 -0.05709721 2.08532287
H -0.68745995 1.05935509 0.17287266
H 0.73328857 1.24540410 -1.59191569
H -0.49974429 -1.56178132 1.51124721
H 1.76962468 -0.04789415 -2.03754425
