11

N -1.5139891 0.9280656 -0.31464112
C 0.97735834 -1.0008428 1.1705906
C 0.48215526 -1.106094 -0.21648613
O 0.5920733 0.10629943 -0.92210966
C -2.6499035 0.6389622 -0.2773066
C -0.106214374 1.1794921 -0.36711115
N 1.365 -0.8824116 2.2501097
H 1.0900925 -1.8296195 -0.7637017
H 0.08285794 2.0332217 -1.0181832
H -0.55644757 -1.4611294 -0.19384298
H 0.2370169 1.3940567 0.6526821
