12

C -0.10020099 -1.03961306 0.63724654
C -0.06892415 0.16171840 -0.26354415
C -0.35393889 0.34770789 1.18581920
O -1.17016373 0.38907265 -1.09466678
N 1.20923453 0.57890053 -0.73814492
H 0.84572749 -1.51220574 0.87831198
H 1.17248814 1.55669768 -1.01186150
H 0.42123955 0.80177080 1.79363420
H -0.95418995 -1.70457563 0.55252378
H 1.48861860 0.03797842 -1.55086458
H -1.11570879 -0.22145989 -1.84016042
H -1.37418215 0.60400790 1.45170689
