12

C -0.7358059 0.46027958 0.94819456
C -0.082437225 -0.0055648917 -0.30583012
C 0.316218 -0.62612605 1.0024425
O -0.9247688 -0.7355361 -1.1501067
N 0.8605989 0.87164813 -0.91751355
H -0.39715812 -1.4152408 -1.5872618
H 1.2887697 -0.36687934 1.4063873
H 1.5525265 0.3489186 -1.4458652
H -1.7697417 0.16627488 1.0959114
H -0.02399616 -1.6382431 1.1987171
H -0.4670684 1.4445826 1.3162184
H 0.38286322 1.4958863 -1.5612943
