11

N 0.1825414 0.009338718 1.2289841
C -0.10477329 -0.36684778 -1.2248341
C -0.043756895 0.35241565 -0.012704479
N -0.31940237 1.8039191 -0.24202943
C 0.3636276 -2.0490735 0.31257358
N 0.13101055 -1.6895928 -0.9491778
N 0.40599707 -1.288534 1.4114568
H -1.1569421 2.126025 0.24483687
H -0.4739756 1.8002133 -1.2729611
H 0.54986507 -3.10528 0.49742708
H 0.46580848 2.4074166 0.00642851
