11

N 0.99299264 -0.84851897 -1.5293803
C 0.24829105 -0.22279657 -0.5562369
C 0.5869989 -0.27687925 0.8139848
N -0.121295065 0.3817165 1.7032893
C -1.1531137 1.0889024 1.2076706
N -1.5084265 1.1594856 -0.061550133
N -0.7972489 0.48308247 -0.9610773
H 1.5316126 -1.6571919 -1.269749
H 0.539939 -0.90383106 -2.4293766
H 1.4350915 -0.85829383 1.1696136
H -1.7548416 1.6543247 1.9128122
