10

C 0.59563017 1.3850373 -0.58381236
O -0.4031292 0.38370463 -0.39069235
C -0.029051313 -0.62520456 0.43306077
O 1.0501609 -0.7137987 0.967411
N -1.06294 -1.503619 0.5815684
H 0.8519458 1.865069 0.36459538
H 0.15022577 2.1094296 -1.2667897
H 1.5002134 0.9547231 -1.0229912
H -1.8263508 -1.4629097 -0.073048994
H -0.82670474 -2.392432 0.99069893
