10

C 0.87474835 -0.3423778 0.24160068
O 0.8760923 -1.5853637 -0.3898212
C -0.20415667 0.43937188 0.14505355
O -0.39396065 1.5790012 0.8597768
N -1.2591164 0.20437416 -0.72504115
H 0.2775769 1.621242 1.5528665
H 1.7279055 -0.0832887 0.86425453
H -2.157699 0.44701332 -0.32755607
H 1.4799004 -1.5379868 -1.1429491
H -1.2212903 -0.74198574 -1.0781842
