11

N -0.41398 -0.55251694 -1.4626677
C 0.19354926 -1.2945873 -0.63964367
O 0.7692013 -0.81736934 0.47585544
C 0.69737405 0.5956394 0.63175625
C -0.7327849 1.0808523 0.79967856
O -1.0292751 2.244373 0.70378804
H -0.781556 -1.0995107 -2.2350185
H 0.3435395 -2.3757164 -0.6873609
H 1.1596423 1.1148257 -0.21245854
H 1.257235 0.80917287 1.5472996
H -1.4629453 0.29483712 1.0787715
