11

N -0.39932266 0.15811735 1.3217518
C -0.075971045 1.3471178 0.78130144
C -0.3369462 -0.8332862 0.26928338
N 0.2815508 1.3325703 -0.4924851
C 0.24282408 -0.008480652 -0.76872617
N 0.85754406 -0.82150924 -1.603077
H -0.06113427 2.2512357 1.3818302
H 1.0810109 -0.5493603 -2.5542355
H -0.77178496 0.035257425 2.2471104
H 0.50629777 -1.6651154 -0.6269878
H -1.3240687 -1.2465471 0.04423467
