11

N -0.9797327 -1.706371 0.59527934
C -0.34816438 -0.53773147 0.15598585
C 0.96647114 -0.16071391 0.27018243
N 1.0428296 1.0529761 -0.4010256
C -0.19405033 1.3243481 -0.87608266
N -1.0602733 0.3929904 -0.5547019
H -1.9831884 -1.599859 0.5196588
H -0.7272386 -1.9770226 1.5351349
H 1.8294904 -0.62211996 0.72411335
H 1.8668348 1.6174818 -0.51918125
H -0.4129785 2.2160215 -1.4493634
