11

N -0.98017895 -1.7055278 0.59775144
C -0.34679666 -0.5386519 0.15364066
C 0.9679947 -0.16258289 0.26800218
N 1.0418502 1.0520006 -0.400082
C -0.19349606 1.3255085 -0.87530565
N -1.0588193 0.3923125 -0.5567125
H -1.98309 -1.6031861 0.5159818
H -0.7322899 -1.9722073 1.5404453
H 1.8314064 -0.62116706 0.72365516
H 1.8659257 1.6150194 -0.52066946
H -0.41250572 2.2184815 -1.4467069
