11

O -0.19988613 0.9844506 0.7983065
C -1.103929 -0.112413116 0.5566883
N 0.9012536 -0.28949505 -0.72604007
C -0.3531235 -0.9943733 -0.46721795
C 0.8556283 0.7413181 0.009905392
O 1.7936325 1.6812046 0.10721031
H -0.91565084 -1.1144781 -1.3986703
H 2.5017397 1.4086936 -0.491469
H -0.14933676 -1.9960562 -0.073167264
H -2.0390294 0.3027629 0.17361182
H -1.2912986 -0.6116141 1.5108421
