10

N -0.45982869 -1.09995061 -1.34239118
C -0.15999066 -0.20635513 -0.37039139
N -0.38125904 -0.51377964 1.05265946
O 0.99973063 -0.45995129 1.61015472
C 0.31764070 0.71886780 1.29738024
C 0.38572294 1.01043147 -0.18106919
H -1.13455905 -1.81044652 -1.10381691
H -0.48940358 -0.77158683 -2.29616975
H 0.05380927 1.37328797 2.12415358
H 0.86813744 1.75948275 -0.79051022
