10

N -0.49310818 -1.359313 -1.0641711
C 1.0527384 0.26179308 0.16045631
N -1.0159336 0.6290595 0.29930443
O -0.73101395 0.45039657 1.7511072
C 0.14629124 1.1787903 0.9433528
C -0.06687204 -0.30685416 -0.32670757
H -1.4222748 -1.2880753 -1.449603
H 0.24005553 2.2424228 1.1466287
H 0.18260556 -1.8411722 -1.638291
H 2.1075118 0.032952685 0.177923
