9

O 1.0408773 0.0021415828 -0.76565486
C 0.22416279 -0.10771962 0.2743131
C -0.9810484 -0.22542502 -1.3919472
N -1.045985 -0.31299335 -0.031918067
C 0.6869432 0.63839126 1.6706399
N 0.18929341 -0.044962037 -1.924602
O 0.80578536 -0.62779045 1.4990612
H 0.9365206 0.98649615 2.6941597
H -1.8565493 -0.3081385 -2.0240517
