9

O -0.933939 -1.1301978 -1.9715304
C -0.41019952 -0.62114775 -1.0176939
N -0.89823294 0.31863716 -0.14044654
C 0.06501194 0.6281323 0.8201402
C 1.129839 -0.123807326 0.5268092
O 0.86799264 -0.892257 -0.58365965
H -1.8225831 0.70411164 -0.22249736
H -0.10057741 1.3442827 1.6081272
H 2.1026886 -0.22775409 0.98075116
