9

O 1.1068525 -0.45893246 1.2059792
C 1.1865128 0.51932466 0.5041198
N -0.9128423 0.18526201 -0.7127048
C 0.10367711 0.8956757 -0.47332385
C -1.1458766 -1.0847939 -0.16518043
O -0.85445946 -2.1140237 -0.7128031
H 0.20261912 1.8612864 -0.9758999
H -1.7318013 -1.0172486 0.77156264
H 2.0453181 1.2134501 0.5582503
