10

O -1.5757555 1.386909 1.1069053
C 1.0866714 0.28818 -0.59996754
O -1.2263072 -0.89734405 1.4906864
C -1.1422539 0.34362414 0.7765562
C -0.2627687 -0.32455596 -0.25811177
C -0.33305696 -1.5298455 0.7096088
H -0.8346594 -0.5684116 -1.1615696
H 1.6124687 0.61747247 0.30102828
H 1.7065035 -0.46257305 -1.098744
H 0.9691581 1.1465443 -1.2663919
