10

O 0.95661044 2.0917206 -1.1642896
C 0.6732194 1.1147584 -0.5485858
O 1.1307029 0.7556702 0.70635474
C 0.49987414 -0.5371197 0.56696945
C -0.96687657 -0.3681677 0.50602996
C -0.120430835 -0.1507329 -0.7419069
H 1.0750188 -1.4055977 0.85092616
H -1.55653 -1.2801937 0.47856247
H -1.4324212 0.47352892 1.0128279
H -0.25916737 -0.6938665 -1.6668885
