10

O 0.41762604 2.32017054 0.27232044
C -0.30231208 -0.67583885 -1.03716577
O 1.19170540 0.59838289 1.65920993
C 0.78816965 -0.65367187 1.38072458
C 0.36830004 1.20839295 0.65574579
C -0.27508229 -0.13422157 0.38382282
H 0.65686488 -0.51993948 -1.53952495
H -1.26123800 -0.20087622 0.85902243
H -1.08520743 -0.19085176 -1.62587833
H -0.49882651 -1.75154673 -1.00827707
