11

N -0.50740004 0.21417734 -1.5069839
C 0.80364347 0.11282288 -0.7873618
C -1.2650127 -0.46539915 -0.8078002
C 0.4694687 0.6418133 0.6267996
C -1.3375473 -0.8696527 0.4573765
O -0.6388998 0.014058467 1.2871673
H 0.24289788 1.7094154 0.5624635
H -1.8139158 -1.7120199 0.9241031
H 1.5335562 0.76728827 -1.269922
H 1.3323251 0.5021997 1.2848723
H 1.1808844 -0.9147036 -0.77071434
