11

C 0.26773235 -0.68618613 -0.3582141
C -1.9545811 0.34782505 -1.3183163
C -0.6943382 -0.023108948 -0.9102073
C 1.3204459 -0.108217485 0.4771381
O 2.101243 0.72897255 0.060561765
N 1.3621924 -0.6070912 1.758164
H 2.1903517 -0.37451038 2.2854805
H -0.5984596 1.1398755 -1.0052505
H -2.8347878 0.13187085 -0.7154439
H 0.9229116 -1.4928885 1.9430959
H -2.082711 0.94345856 -2.217008
