10

N 0.2270381 1.7664155 0.39565152
C -0.20207429 0.48013097 0.16393307
N -1.4015836 0.049721487 0.36150312
O -1.3371109 -1.3372082 0.10437997
C -0.08086131 -1.6973076 -0.2620852
O 0.2805126 -2.809502 -0.5247805
N 0.64381146 -0.5148255 -0.25756165
H 0.755259 2.174738 -0.3633497
H -0.53303313 2.3665414 0.68505687
H 1.648042 -0.4787039 -0.30274743
