10

N 0.82079979 -0.99727184 -0.74289663
C 0.63002703 0.22362689 -0.30494432
N -0.54834796 0.45366040 0.35989342
O -2.24439393 -1.12444678 0.75687138
C -1.07746886 -0.72977706 0.28295302
O -0.37111183 -1.64744800 -0.33776935
N 1.51735457 1.23654405 -0.52868860
H 2.44440609 0.94907944 -0.80001033
H -2.64783420 -0.34725529 1.16825553
H 1.47656924 1.98328835 0.14633594
