10

N -0.5400194 -0.34555066 -0.47433144
C 0.5723715 0.41214785 -0.206056
N 1.2411019 1.0539749 -1.208189
O 0.023899898 -0.40805262 1.6729671
C -0.78960645 -0.7971642 0.7173751
O -1.7677892 -1.6026653 1.0867034
N 0.96896666 0.4391891 1.0432523
H 0.6716863 1.2896893 -2.005154
H 1.8858848 1.7691407 -0.91075194
H -2.2664962 -1.8107091 0.28418443
