10

N 0.68523043 1.5681988 0.82036287
C 0.03143481 0.6169789 0.10123804
N 0.2665787 -0.7248904 0.2351436
O -0.5832319 -2.5299842 -0.53977
C -0.6339737 -1.2688342 -0.5680209
O -1.3838245 -0.39503092 -1.1957871
N -0.9290366 0.8932124 -0.7536458
H 0.37360814 -2.0221486 0.33572602
H 0.53306234 2.5119245 0.50186336
H 1.6401523 1.3505735 1.0628896
