10

C 0.41241094 -0.13766858 0.47319052
O -0.81242675 0.13308851 -1.5928589
C -0.48107108 -0.7030892 -0.50759923
O 1.0194329 -1.0991604 1.077777
N 0.6864209 1.1413016 0.7077239
H 0.22813186 1.8226169 0.12073628
H -1.3551322 -1.1417398 -0.005262914
H -1.7652235 0.2824279 -1.5978955
H 0.5257218 -1.6949188 0.14414696
H 1.5417352 1.3971419 1.1800418
