10

O -0.8691333 1.0044936 0.80350447
C -0.92868215 0.59834254 -0.6054518
C -0.705633 -0.84720665 -0.05894393
N 0.32465482 -0.051056765 0.7053449
C 0.63038284 0.71076095 -0.55881244
H -1.4908203 -1.2418019 0.58686197
H 1.0341028 1.7018944 -0.35087305
H 1.2551336 0.13267584 -1.2521985
H 0.9934473 -0.39106286 1.4185295
H -0.24345262 -1.6170392 -0.6879614
