10

O 0.35170203 -1.38736044 1.88963800
C 0.15585462 -0.67832062 0.77860363
N 0.03930532 0.73878558 0.92212478
C -0.13890126 1.13566788 -0.28201999
C -0.14233955 -0.02317945 -1.23965816
N 0.06698250 -1.17909199 -0.38883104
H 0.37394540 -0.75694500 2.62453836
H -0.26770816 2.18480208 -0.53437753
H 0.65358012 0.06456854 -1.98864619
H -1.09242099 -0.09892665 -1.78137190
