10

O 0.059796434 -1.4520564 1.6621519
C 0.037771076 -0.47619376 0.7393076
N 0.13591361 0.8026926 0.9533838
C 0.056045704 1.366084 -0.3109642
C -0.08895214 0.40734074 -1.2650489
N -0.1001489 -0.7990402 -0.56705815
H 0.16440775 -1.0019873 2.512111
H 0.10985532 2.4383113 -0.4447299
H -0.18352248 0.44466335 -2.3389423
H -0.19116634 -1.7298144 -0.9402109
