10

O 0.88945246 0.36070004 2.0867198
C 0.39202273 0.22789262 0.8479288
N 1.0916042 -0.4312482 -0.08166895
C -0.96426827 0.30195647 -0.7782105
C 0.14259054 -0.43153584 -1.1994048
N -0.79917306 0.7065149 0.4931862
H 0.38587293 -1.4199135 -0.43529192
H 0.49047095 -0.6999701 -2.1889641
H 0.23011042 0.84908104 2.5969563
H -1.8586829 0.5365224 -1.3412501
