11

C 0.47375095 1.96720245 0.69391894
N -0.63370868 1.31204894 0.32220239
C -1.31647525 -0.88933046 -0.47959858
N -0.29104403 0.03079910 -0.03304122
C 1.00270703 -0.16683094 0.09912416
N 1.48993589 0.99581069 0.54159562
H 2.46243738 1.17014347 0.74083950
H -1.81767631 -0.46104207 -1.34807690
H -2.04116947 -1.02964343 0.32377195
H -0.85954007 -1.84419144 -0.74411536
H 1.53078232 -1.08496643 -0.11662053
