11

N -2.7634144 -1.0804965 0.8381292
C 1.2362838 1.5380278 -0.80000705
C 0.3020379 -0.030317718 -0.44960472
C -1.6344956 -0.8318244 0.8829114
C -0.20349324 -0.5131719 0.90217614
O 1.6694882 0.26299495 -0.37385327
H 0.049603034 -0.65389436 -1.3115199
H 0.36776838 -1.4073968 1.1789563
H 1.1799821 1.4411087 -1.9214526
H -0.20210521 1.0158814 -0.59611094
H -0.0016551017 0.25908932 1.6503752
