10

C 0.71590644 -1.2696508 -0.21305752
N -0.6753174 1.9045318 -0.7333223
N -0.08288212 0.836512 -1.1454898
C -0.8274189 1.8413941 0.65347123
N 0.04625751 0.014358075 -0.13002913
N -0.33135712 0.59871584 1.0279006
H 1.6811078 -1.212552 0.2945728
H 0.8542968 -1.4947644 -1.2695718
H 0.09263312 -2.0308535 0.26061088
H -1.4732261 0.81230885 1.2549151
