11

O 1.47674547 0.03366760 -1.90986009
C 0.79675358 -0.03415163 -0.90932971
N -1.06722581 0.07377749 0.53728170
C 1.11444811 -0.59655360 0.40127213
C 0.01935874 -0.45387400 1.18483995
C -0.64578274 0.49965062 -0.78864648
H -1.27776977 0.07608199 -1.57343301
H -0.64334486 1.59138743 -0.88971954
H -0.08523803 -0.74514138 2.22455610
H 2.05449835 -1.05854035 0.66660083
H -1.74244343 0.61369569 1.05643799
