11

O 2.007604 0.32061812 -1.3023849
C 1.0430424 0.09381666 -0.6050819
N -1.1798313 0.06255971 0.19279525
C -0.34569463 0.74071455 -0.7877096
C 0.90994805 -0.79459465 0.5472697
C -0.37244475 -0.7207448 0.9757223
H 1.7020364 -1.4077473 0.952443
H -0.27732173 1.8181155 -0.59628516
H -0.81115955 -1.2364136 1.8233082
H -1.967943 0.5357823 0.60739636
H -0.7082359 0.5878933 -1.807473
