11

O 1.7506058 -0.9204586 -1.8318146
C 0.73199195 -0.26839775 -1.9192973
N -0.035038643 0.08699315 -0.8547772
C 0.34000337 -0.32241377 0.49113217
C -0.579619 0.25111905 1.4717118
C -1.3414013 0.7240154 2.270258
H 0.32480437 0.101453364 -2.8787355
H -0.87997246 0.61958545 -0.9947571
H 0.33126703 -1.417071 0.5634779
H 1.3668292 0.0025409653 0.6942096
H -2.0094707 1.1426336 2.9885921
