11

O -2.0962627 1.3915913 -0.45448762
C -1.2719408 0.5384762 -0.65397984
C 1.3990352 -0.3995565 0.08886151
O 0.30509606 -1.1777308 0.08416142
C -0.9163541 -0.50832593 0.38478824
N 1.3495703 0.84086984 0.30751398
H 2.2784095 -1.0110323 -0.12645392
H -1.6769096 -1.2960173 0.36863086
H -0.88490975 -0.04632167 1.3742524
H 2.2742364 1.2562426 0.2574938
H -0.75997025 0.41180456 -1.6307809
