11

N 1.03361834 -1.28660473 -0.57377014
C -0.64653306 0.40279954 -1.07098316
C -0.17560370 -0.26615139 1.27459785
O -1.10545646 0.18824088 0.27650381
C 1.12418883 -0.35621657 0.45316973
C 0.83401378 0.03366140 -0.93360312
N 1.51756177 0.86459876 -0.05628316
H -0.12008258 0.47905997 2.07035797
H -0.79263156 1.44913503 -1.34631873
H -0.48676529 -1.24163805 1.65281916
H -1.18231044 -0.26688489 -1.74649023
