11

N 0.90269333 -1.4604042 -0.32449222
C 1.1638824 -0.29871342 0.39013037
C -0.006663115 0.095297284 1.3103995
O -1.0501397 0.33011007 0.3495094
C -0.7747208 0.14645049 -1.0514834
C 0.69797415 -0.27307552 -1.003289
N 1.522338 0.7126597 -0.47780314
H -0.29393438 -0.7207306 1.9759976
H 0.18199639 1.0198092 1.8593458
H -0.923638 1.0892228 -1.5815555
H -1.4197882 -0.64062583 -1.4467597
