10

N -0.94748427 1.22238154 -2.66271539
C 0.94975018 -0.05498336 0.71807143
C -0.98661657 0.89980514 -1.53971816
C -1.11796655 0.65571416 -0.16262610
C -0.46971327 -0.56893703 0.33863819
H 1.51309022 0.24886435 -0.16739204
H -0.95559939 -0.93021732 1.24736843
H 0.89428545 0.78580806 1.41288186
H -0.36515287 -1.38408171 -0.38844968
H 1.48540718 -0.87435400 1.20394183
