10

N 0.9057309 1.9266151 -1.8446983
C 0.3521112 1.0797923 -1.2838589
C -0.32832873 0.023318045 -0.5723343
C -0.48131424 0.12039898 0.92815953
C 0.46475494 -0.87829983 0.34814218
H -1.1460477 -0.42928225 -1.1261232
H -1.4194949 -0.22680485 1.3464128
H -0.06454535 0.99780333 1.4124845
H 0.18837447 -1.9275594 0.3572141
H 1.5287595 -0.6859816 0.43460196
