10

O -0.31589442 1.739505 -1.1010154
C 0.5535581 -0.3964377 -0.9013331
C -0.14433426 -0.91934896 1.0722859
N 0.38210228 -1.4567485 0.027902396
C 0.021759007 0.7770527 -0.30956537
N -0.3698677 0.4658147 0.94756275
H -0.20912543 0.56173146 -1.749977
H -0.40801063 -1.4343998 1.9875594
H -0.96867603 1.0320425 1.528669
H 1.4584891 -0.3692115 -1.5020887
