10

O -0.98373924 1.92396076 0.55823021
C 1.11555970 -0.70669576 -0.10917692
C -0.45247057 0.88434189 0.25533204
N 0.06974376 -1.34405928 -0.46636375
C -1.04311134 -0.41924933 -0.28060432
N 0.90723683 0.59907374 0.32549335
H 1.60683197 1.25012297 0.64368701
H -1.56675543 -0.24438336 -1.22591976
H -1.77410294 -0.82760746 0.42606876
H 2.12080726 -1.11550426 -0.12674654
