9

O 0.013667114 -1.0819665 -1.9679769
C -0.21444051 0.069255665 -1.6563541
N -0.12039214 -1.375143 1.4084692
O 0.42700052 -0.104033455 2.1883018
C -0.2276382 -0.33788744 0.6990308
C -0.35257727 0.5558111 -0.288481
H -0.58779925 1.5846579 -0.05081782
H -0.32936496 0.8587344 -2.4269826
H 1.3915447 -0.16942865 2.0948107
