10

N -0.7142627 -0.5295456 -0.8033223
C 0.16698673 0.28934348 0.91172856
O -2.135872 -0.8113167 1.0633764
C -1.1370231 -0.4401332 0.5227838
C 0.5072144 0.12030882 -0.57199764
N 1.417359 0.37462908 -1.3985695
H -1.1301588 -0.9195326 -1.6372182
H 0.02767373 1.3183837 1.2517208
H 0.8075296 -0.25970083 1.607275
H 2.1905534 0.8575638 -0.9457766
