10

O 1.3180144 -0.91283524 0.48975432
C 0.40582755 0.13839406 0.36605197
C 0.009323437 0.44672784 -1.0774496
O -1.3884884 0.17877488 -0.7643377
C -1.0861024 -0.20802908 0.50601333
O -1.8101354 -0.65768033 1.3368984
H 1.3285953 -1.2016177 1.4109329
H 0.6860448 1.0229899 0.9541965
H 0.3941154 -0.27818072 -1.7959394
H 0.14280535 1.4714563 -1.4261204
