10

O -1.3409699 0.30517456 -0.7025257
C 0.86625916 0.06847062 -0.2662915
C -0.17847413 1.0404972 -0.637362
O -0.082946986 2.2036185 -0.91416526
C -1.0155691 -0.73346066 0.16531067
O 1.6285754 0.39104444 0.78085786
H -1.4891833 -1.6738695 -0.12516463
H -1.1013532 -0.48977128 1.2225819
H 0.2522369 -1.0161506 -0.2342561
H 2.4614253 -0.095553204 0.7110147
