12

O -0.66220343 1.4914979 -0.8159405
C 0.18542103 0.4182868 -1.1336335
C 0.48015466 -0.40142968 0.12252279
O 1.0361041 0.45167723 1.0863516
C -0.79038316 -1.014724 0.6701063
O -1.1287284 -0.8281776 1.8134981
H -0.25822118 1.9193501 -0.04644349
H 1.1394892 0.7554803 -1.5624079
H -0.32452315 -0.19988781 -1.8822781
H 1.1669015 -1.2260928 -0.13374464
H 0.5296247 0.2906752 1.8999017
H -1.3736358 -1.6566556 -0.01793276
