12

O -1.5815787 -0.9040555 0.107942484
C -0.18612884 -0.97306544 0.03340075
C 0.4855995 0.2648943 0.66531783
O 0.32056066 -0.64169 -1.2518193
C 0.8365437 0.62389827 -0.7847388
O -0.35450453 1.1272205 1.3684827
H 1.3550696 0.027584909 1.2832847
H 0.124892876 -1.9714056 0.35818976
H -1.8917533 -0.60389787 -0.7578621
H 0.25784865 1.471323 -1.1725341
H 1.8952156 0.7407887 -1.0333918
H -1.2617649 0.8384049 1.1837279
