11

C -1.2412605 0.26511067 1.0538675
N 0.96137255 0.17372905 -0.021785127
C 0.37254238 -0.6339576 -0.959922
C 0.08508521 1.0625519 0.66352534
N -1.4426478 -0.7236661 0.35664245
H 0.9579905 -1.5066277 -1.2519016
H -1.4297172 -1.557986 -0.18874738
H 1.5731447 -0.33436096 0.6056303
H -0.28519887 1.847404 -0.0038510268
H 0.5690204 1.5217248 1.5268564
H -0.12033136 -0.11392183 -1.7803149
