12

O 0.95923720 1.20267336 0.72685873
C 0.15420323 0.09331518 1.00086528
C -1.01067726 -0.07788978 0.05181955
O -1.08523463 0.86359959 -0.98078736
C 0.18253541 -0.99358155 -0.04433926
O 1.04343755 -0.73483980 -1.11730344
H 0.51099579 -0.22726392 -1.75377322
H -0.56527375 1.62261783 -0.66236469
H 1.61258961 0.88234560 0.08019002
H 0.04608099 -0.13935214 2.05670326
H -1.97083164 -0.45376249 0.39419732
H 0.12293777 -2.03786208 0.24793398
