12

O -0.74081606 -1.2994285 -0.93296
C 0.91440976 0.20337988 -0.07875166
C -0.2072383 -0.08365563 -1.0477644
O -0.90061736 0.23065664 1.5158516
C -0.398619 0.82554924 0.40076804
O 1.2869408 -0.91285014 0.6339566
H 0.7291997 -1.6343038 0.23700999
H -0.56531566 1.8925163 0.28580606
H -1.328622 -0.1537838 -0.46737307
H -0.26436684 -0.4570854 1.7804872
H -0.25351906 0.5287908 -1.9533051
H 1.7285639 0.8602141 -0.37372518
