12

O 1.0441539 1.103633 -1.0095724
C 0.6017526 1.015074 0.3192208
C -0.44777077 -0.08804606 0.44699976
O -1.4948486 0.1870137 -0.4451018
C 0.15635924 -1.4373045 0.111322165
O -0.32814753 -2.1431916 -0.7404566
H 0.2375571 1.1364362 -1.5469615
H 0.16213743 1.9576155 0.67454416
H 1.4751195 0.78817284 0.94179374
H -0.8070893 -0.13179424 1.4895977
H -1.6417351 -0.63863134 -0.93793654
H 1.0425118 -1.7489777 0.6965507
