10

C -0.7563821 0.43736395 -1.2234288
C 0.9206407 0.7772327 0.5225167
N 0.22437097 1.1489692 -0.5825247
C -0.9445666 -0.80514187 -0.53179145
N 0.73277366 -0.34934875 1.1311146
C -0.22442694 -1.1495429 0.5783486
H 0.4556304 2.053697 -0.976338
H 1.6659373 1.4775149 0.89659274
H -1.6947823 -1.4945514 -0.90806854
H -0.3791951 -2.0961933 1.0935792
