10

C -0.96775418 -0.38230036 -0.86055792
C 0.94288249 0.36402021 0.83854371
N 0.27810707 1.27503904 0.08209516
C -0.72050697 1.03020170 -0.82445950
N 0.70174967 -0.90655876 0.79001297
C -0.27812453 -1.27340384 -0.08598084
H 1.70971017 0.74472429 1.51147370
H 0.55068085 2.24374386 0.20216490
H -1.73903470 -0.75233252 -1.52980832
H -0.47771008 -2.34313365 -0.12348394
