9

O 0.7550075 0.24686596 -2.0776258
C 0.26599044 0.110068 -0.8375564
N 0.9900263 -0.31414467 0.17654547
N 0.07684887 -0.2821012 1.1822777
C -1.105042 0.14885354 0.7214073
N -1.0276272 0.41070265 -0.5676595
H 1.68483 -0.01479208 -2.0538623
H 0.342887 -0.5612792 2.1120462
H -1.982921 0.25582695 1.3444277
