9

O 1.50212696 0.44919664 -1.51360786
C 0.44763539 -0.21889412 -1.11016857
N 0.14547068 -0.98394035 -0.00341283
N -1.33792457 0.44314658 1.17003462
C -0.28485574 -0.25034979 1.13910666
N -0.71229767 -0.58330859 -1.36704662
H 1.33501534 0.79203338 -2.40485066
H 0.39108520 -0.45392566 1.97786456
H -1.48625569 0.80604188 2.11208107
