10

O -0.4543657 1.6583153 0.13497582
C -0.15644516 -0.2413748 -1.2041941
C 0.05092422 0.37718225 0.097593635
O 1.309863 0.18369195 0.6997147
C -0.332586 -0.77565694 -2.2646434
C 0.17783222 -0.4535045 1.3031142
H -0.14749442 2.0772886 0.9517026
H -0.12941194 -0.036033746 2.2620058
H -0.4815225 -1.2511743 -3.2098374
H 0.16320631 -1.5387337 1.2295686
