12

O -0.9502515 1.2990113 -0.6172338
C -1.3247464 -0.2982506 -0.15310398
C 0.004310517 -0.6029239 0.5132765
O 0.33121744 0.45401746 1.4115671
C 1.1708022 -0.75703406 -0.43984652
O 2.1424487 -0.029434806 -0.40385154
H 1.2864451 0.612212 1.2957412
H -1.8215431 1.7014217 -0.51961863
H 1.0640445 -1.5481119 -1.2083479
H -0.45597017 1.5038035 0.22930922
H -0.13407756 -1.5586922 1.0415838
H -1.3126796 -0.77601844 -1.1494755
