12

O 0.28089994 -0.321216 -2.157939
C -0.3139164 0.37000018 -1.3634121
C 0.26845533 0.7038492 0.007820347
O -0.45423967 -1.4912057 1.0396227
C -0.6132943 0.2725017 1.1476368
O 1.5316302 0.087073885 0.12261137
H -1.3139098 0.78782845 -1.5742221
H -1.6719002 0.41839215 0.89604795
H -0.28913617 -0.9409963 1.9166502
H 0.33353028 1.804616 0.07418594
H 0.45871258 -1.5262935 0.6738261
H 1.7831682 -0.1645499 -0.78282773
