11

N 0.8565294 -1.326168 -1.5724335
C 0.48571488 -0.6596348 -0.55861187
C -0.34324867 1.3158759 0.3476265
O -0.8960512 0.447966 1.2981843
C -0.046413634 -1.2977864 0.58604026
O 0.6899716 0.7025437 -0.4178943
H -0.17647828 -0.2360177 1.6209817
H 1.2946113 -0.70523083 -2.2500343
H -1.1553084 1.630915 -0.31575704
H -0.8181032 -2.0536118 0.42292264
H 0.108775966 2.181149 0.8389756
