11

N 0.26989658 -2.06637941 -0.79622565
C -0.56868580 -0.84465967 -1.23757791
C 0.13207880 -0.80828744 -0.16757311
O 0.64628709 -0.26022944 0.90498373
C 0.21701630 1.10218337 1.09304781
O 0.63628242 1.94928570 0.09247441
H -1.12642784 -0.49000948 -2.08495219
H -0.25345615 -2.78576055 -0.29496250
H 0.21852149 1.69443924 -0.74029604
H -0.87468662 1.08437341 1.21644391
H 0.70317343 1.42504420 2.01463764
