11

N 0.32739684 2.9284806 0.44874132
C -0.20627017 1.9110602 0.34952584
C -0.85459334 0.6013657 0.20306242
C 0.008920837 -0.357088 -0.5957025
C 0.91387814 -1.2924868 0.06776177
O -0.33390886 -1.721093 -0.4646513
H -1.8230094 0.73749983 -0.28881943
H -1.0473794 0.1778313 1.194754
H 0.23966683 -0.03797549 -1.6117201
H 1.7967896 -1.6543213 -0.45739475
H 0.9785087 -1.2932734 1.1544427
