11

N -0.19683865 2.81657046 0.91452829
C -0.22714357 1.89758664 0.21761329
C -0.26730375 0.71134234 -0.64684734
C 0.47989475 -0.46755220 -0.05391455
C 0.01844064 -1.83165228 -0.39654788
O -0.06178173 -0.96243386 1.19970579
H -1.30576477 0.42011535 -0.84097113
H -1.02051521 -0.81404690 1.23365437
H 0.18194840 0.95805831 -1.61453418
H 0.86927434 -2.49439837 -0.15927190
H 1.52978932 -0.23358985 0.14658522
