11

N -1.2941071 2.5652106 0.74374604
C 0.63102716 -1.7152904 -0.41487804
C 0.09701993 0.793199 -0.5977401
C -0.6763603 1.7946064 0.14734164
C 0.47367194 -0.4039537 0.25350952
O -0.6526614 -1.172285 0.7544341
H -0.46957043 0.4513364 -1.471241
H 1.015205 1.2567658 -0.97344756
H 1.0554157 -0.1182676 1.1350847
H 1.218168 -2.3314672 0.2887142
H -1.3978087 -1.1198543 0.13447636
