10

N -1.0948856 -0.33147413 0.023934146
C 1.0900023 -0.34114748 -0.6249233
N 0.3747539 1.0202886 1.3603945
O 0.7869311 -1.098534 -1.5369513
C 0.08323641 0.18259303 0.27922153
C -1.5287572 -1.2836801 -0.6328624
H -2.1333835 -1.140571 -1.5238208
H 0.69446564 1.9393452 1.0863912
H -0.40722468 1.1033579 1.9962479
H 2.1348617 -0.050177835 -0.42763135
