11

N 0.7834906 -1.3884255 -1.1703535
C 1.1618005 0.73136425 -0.04463136
C 0.32064512 -0.40206864 -0.5428503
O -1.0250239 0.1576013 1.8515944
C -1.6116962 0.040624894 0.81582445
O -1.0718914 -0.26993585 -0.3852385
H 1.1649863 0.74879754 1.0478777
H 2.1723864 0.58978677 -0.42671135
H -2.6970606 0.14985934 0.6799337
H 0.7611998 1.6845624 -0.40420848
H 0.041163545 -2.0421667 -1.4212368
