11

C 0.20312032 0.10467948 1.7547687
N -0.097453944 0.8254095 0.5176046
C -0.22042276 -0.57418877 -2.1859348
O -1.2665474 -1.015977 -2.5619967
C -0.018463325 0.29954565 -0.68539494
O 0.34451383 -0.9495256 -0.80294824
H 0.3864961 -0.94316334 1.5063294
H -0.6516392 0.17193916 2.4320078
H 0.6244053 -0.23082413 -2.7890885
H 1.0896418 0.52380276 2.2341876
H -0.39365062 1.7883021 0.5804644
