11

C -1.1764518 -1.9437474 -0.5791178
N 0.23222257 1.1649244 -0.3897657
C -0.53285307 0.2699902 -0.9882092
O -1.8360355 -2.0408201 -1.5657699
C 0.98668617 1.0408623 0.86266
O -0.46714273 -0.8536953 -0.16760865
H 1.5492679 1.9650927 1.014113
H -1.0348705 -2.741211 0.16937242
H 0.306869 0.8888526 1.7045677
H 1.6820551 0.19979377 0.80911684
H 0.29025307 2.0499575 -0.8693584
