12

C 0.35789973 -0.23876487 -0.22892955
C -1.6030803 -1.487906 0.48507154
N -0.82774544 -0.26440042 0.35359576
N 0.8908173 1.0292155 -0.2275098
C 2.1363862 1.2542065 -0.79655266
O 2.6596708 2.3421612 -0.8247149
H 0.44892293 1.8670546 0.16086958
H -1.2588221 0.5720109 0.7469203
H -2.5514646 -1.402784 -0.053679883
H -1.8067807 -1.701564 1.5388423
H 2.5676045 0.32754698 -1.2098323
H -1.0134087 -2.2967765 0.0559196
