13

N -0.60767466 -0.8622466 -1.4391693
C 0.44038796 -0.040605903 -0.8415695
C -0.08167069 0.550356 0.47893527
N -0.52594775 -0.5314084 1.3503139
C 0.98801875 1.3206594 1.1383091
N 1.821124 1.9414321 1.6438601
H -0.5159196 -0.8849784 -2.4489226
H -0.5178295 -1.8228294 -1.1265497
H 0.68762153 0.7824805 -1.519936
H 1.3643018 -0.5982609 -0.6289063
H -0.8875133 1.259602 0.23183802
H -1.3432962 -0.943845 0.911918
H -0.8216026 -0.17035505 2.2498786
