13

N -0.65646798 -0.54693165 -1.53198144
C 0.51875704 -0.32383860 -0.70258421
C 0.08915501 0.46549895 0.54145791
N -0.95056862 -0.26502554 1.22970504
C 1.23344930 0.66042688 1.44743915
N 2.13702428 0.84342847 2.14366812
H -0.48064294 -1.27494377 -2.21317971
H 0.89867810 -1.29533872 -0.36776571
H -0.88653752 0.29798143 -2.04785205
H 1.33614014 0.21011952 -1.20806062
H -1.63459501 -0.54564249 0.53683304
H -0.22157194 1.47458143 0.22098189
H -1.38282012 0.29968444 1.95133819
