14

C -0.7326417 -0.3526872 0.25521475
N -1.1157426 -1.1798707 -0.6270473
C 0.77549714 1.3354206 1.2372347
O -1.4763969 -0.1794368 1.3621471
N 0.3929592 0.44011483 0.25168037
C -0.3016963 -1.3661244 -1.8107297
N 1.8476963 1.9973632 1.0912664
H 0.70902544 -1.7347932 -1.5778577
H 0.08628275 1.3846923 2.0824893
H -0.19474596 -0.44317368 -2.4006011
H 1.9967844 2.609496 1.8862177
H 1.0221295 0.3793847 -0.53453326
H -2.227664 -0.7804115 1.236846
H -0.78148735 -2.1099744 -2.4523268
