14

C 1.1726053 1.0297035 1.7623535
N -0.10878514 -0.057180274 -0.78905976
C -0.39429167 -0.4034866 0.49793118
O -1.2877748 -1.2801874 0.80571496
N -0.43648687 -0.24764527 -3.0623705
C -0.7528089 -0.6105704 -1.8904643
N 0.13913491 0.0335366 1.6053376
H 0.81323737 2.0363045 1.5118186
H -0.7934325 -0.88355523 1.9351882
H 2.0531604 0.80627674 1.145333
H 0.6003254 0.6379186 -0.9798498
H -0.99404824 -0.75726956 -3.7427223
H 1.497553 1.0411581 2.8066058
H -1.5083882 -1.345003 -1.6058166
