9

O 0.47591218 -1.7059876 -0.74285996
C -0.14371245 1.5121491 0.6848744
N -0.54038906 0.32380745 -1.240502
O -0.74772024 1.5087186 -0.5277679
C 0.376505 0.2041483 0.81468076
C 0.10260797 -0.45999724 -0.44085643
H 0.18174483 -1.8999287 -1.6460185
H -0.6958301 0.67825043 1.4717196
H 0.9908819 -0.16116032 1.6267298
