10

O 0.09598254 -1.6446191 0.7367316
C -0.5663697 -0.54232377 0.88219404
C 0.2286301 0.3341964 -1.4006805
O 0.7964578 0.46118096 1.0379088
C -0.2197808 0.59474283 0.013985804
O -0.2413687 0.93289036 -2.3348196
H 1.0017885 -0.45092374 -1.5308251
H -0.7849997 1.522191 0.106784664
H -1.3159882 -0.41977856 1.6673114
H 1.005648 -0.7875565 0.821409
