10

O 1.25463196 -1.01088312 0.40940140
C 0.48654469 0.01869402 0.88671719
C -0.47282759 0.64106980 -0.02763528
O -0.88912926 -0.21201797 1.04490568
C -0.66577822 0.06680959 -1.39772666
O -0.79354855 0.76673570 -2.36789707
H 1.55064669 -1.55710751 1.14696109
H -0.69562909 -1.03902090 -1.44728062
H 0.93827866 0.62649087 1.67689382
H -0.71318940 1.69922925 0.07566029
