11

N -0.6948811 0.4064574 1.9851081
C 0.021703964 -0.2627653 1.0156674
O 0.7375637 -1.2138745 1.2470521
N -0.12268903 0.28320035 -0.25200465
C 0.52486134 -0.2317667 -1.3658686
N 0.40300456 0.35279816 -2.4863255
H -0.7303921 -0.08697763 2.8646288
H -1.5474322 0.8795656 1.7251161
H -0.61962956 1.1518615 -0.39370388
H 1.0968629 -1.1336626 -1.1424687
H 0.9310276 -0.14483619 -3.1972008
