10

O -2.3864665 0.9571686 0.40326154
C -1.770764 -0.057228472 0.6249768
C -0.3583526 -0.22298609 0.21249138
N 0.27587298 -1.3398253 0.46597934
O 1.5346817 -1.1762491 -0.02884257
C 1.6398085 0.04903579 -0.5760765
C 0.4712414 0.7177967 -0.4622831
H -2.212108 -0.9251498 1.1479125
H 2.6051388 0.28743058 -1.0007452
H 0.200947 1.7100072 -0.78667414
