9

O 1.7437508 0.53981084 -1.6418507
C 0.8898013 0.35247594 -0.81879294
N 0.267607 -0.81476194 -0.44136226
C -0.6711501 -0.55564964 0.5569845
C -0.6141456 0.75931656 0.78285867
O 0.32525852 1.3351357 -0.038015135
H 0.48628402 -1.7016739 -0.86015636
H -1.2813473 -1.3258842 1.0024827
H -1.1460587 1.4112307 1.4578515
