9

O 1.6665566 1.8350394 -0.66919357
C -0.16059834 -0.8656642 0.44112864
N 1.1405127 -0.17419744 0.4197107
C 0.96119726 0.9271919 -0.34783906
C -1.0237294 -0.17318276 -0.39267573
O -0.43712854 0.8919996 -0.85696036
H -0.21130218 -1.9044069 0.740164
H 0.10787084 -0.15614371 1.358826
H -2.0433788 -0.38063574 -0.69316065
