11

N 0.37322035 0.01680142 1.4198588
C 0.023454051 0.58789206 0.09202291
C -1.3080056 0.3985431 -0.33616906
N 0.29586658 -1.2137293 1.2861277
C -0.24145278 -2.0048919 0.47047657
N 0.89931935 1.6130782 -0.30145463
N -0.5258328 -0.5169061 -0.8031057
H -2.3636882 0.6046433 -0.2873765
H 1.8627247 1.3034397 -0.29460314
H 0.32306916 -2.7799947 -0.036008824
H 0.66132534 1.9911244 -1.2097678
