11

N -0.42209694 -1.6458355 -1.0663881
C -0.23366836 -0.48961595 -0.35647374
C 1.0125448 -0.13182916 0.20292148
N 1.1632193 1.0149829 0.825959
C 0.065262064 1.7885075 0.8721797
N -1.1211572 1.4911921 0.36748838
N -1.2773768 0.32544106 -0.24975055
H 0.1752343 -2.430921 -0.864208
H -1.3888048 -1.8818806 -1.2365679
H 1.8761294 -0.7899556 0.1352171
H 0.15071435 2.7499144 1.3696226
