10

N -0.65403897 -1.2180703 1.1908935
C -0.1794842 -0.30553514 0.25669193
C -0.78177625 0.73039365 -0.37874052
O 0.14082132 1.2662976 -1.25014
C 1.2323283 0.5181167 -1.0804405
N 1.1193877 -0.42553788 -0.20724916
H -1.3211125 -0.8405417 1.8477727
H 0.102595724 -1.6879226 1.6651428
H -1.754618 1.1919931 -0.36347577
H 2.095897 0.7708066 -1.6804552
