10

N 0.8390992 -1.2855662 -0.27324674
C -1.0192275 0.13150957 -1.1127137
C 0.036489718 -0.14521904 -0.1294742
O -1.7745383 1.0733551 -1.0572733
C 0.28431293 1.500961 1.7281815
N 0.13669711 0.6322202 0.88527906
H 1.2432963 -1.3649671 -1.1993738
H 1.5709721 -1.3360549 0.421839
H -1.0570521 -0.6154108 -1.9343672
H -0.26004967 1.4091724 2.6711497
