9

O 2.1326525 -0.002077711 0.1396684
C 1.0757543 -0.27153823 -0.7518126
C -0.2511324 -0.14378265 -0.13117519
C -1.3090814 0.0017566287 0.41134936
C -3.521778 0.30303535 1.544615
N -2.4816446 0.1598661 1.0086716
H 1.2275835 -1.3006842 -1.0896624
H 2.0105376 0.87989306 0.5107014
H 1.1171082 0.37353167 -1.6423556
