11

N 0.7394137 1.736404 2.3406296
C 0.2506111 1.3229666 1.3796263
C -0.34733915 0.78118104 0.1451666
C 0.5790885 -0.117662475 -0.700757
C -0.40055338 -1.2322598 -0.31182188
O -1.2423221 -0.3012597 0.4006293
H -0.8373739 1.6009101 -0.3920136
H 0.5934489 0.14231202 -1.7597078
H 1.5981722 -0.22066733 -0.32612273
H -0.93810385 -1.7128763 -1.1337023
H 0.0049581416 -1.9990481 0.35807323
