15

N -0.4784951 -2.2378526 1.2909635
C -0.32047606 -0.9258173 0.90131
O -0.8000283 -0.0034227371 1.5502232
N 0.41657588 -0.7579074 -0.24157375
C 0.9349998 0.54006493 -0.67131406
C -0.1329349 1.5840062 -1.0145423
O -0.6077306 2.3037808 0.08953231
H -1.1869308 -2.3453376 2.0029085
H -0.47417083 -2.9576838 0.5855863
H 0.9655225 -1.5552033 -0.5256737
H 1.5310407 0.3387086 -1.5675656
H 1.6013032 0.96607727 0.09064595
H -0.94210136 1.0854367 -1.5723152
H 0.31893638 2.3224742 -1.6873857
H -0.8255108 1.642676 0.76920027
