10

O -1.9534727 -0.16605788 0.49111933
C -0.7233507 -0.047989666 -0.014722565
N -0.32988533 0.06429844 -1.1997522
C 1.7002505 0.10547702 0.09707854
C 1.1108419 0.15321805 -1.1164758
N 0.3738726 -0.042649023 0.95096004
H 0.32120022 0.73318845 1.6108698
H 0.42801228 -0.90166456 1.4971386
H 1.6380273 0.25982335 -2.0574777
H -2.5654962 -0.15764411 -0.25873783
