10

O 1.2410877 0.50732166 -1.7527331
C 0.47209755 0.083814576 -0.7368409
N -0.064988755 -1.0917971 -0.60745305
C -0.75083596 -1.0216408 0.5917918
C -0.6119217 0.20376106 1.1646614
N 0.193286 0.92407894 0.28550288
H 1.3030341 -0.24318588 -2.3603044
H -1.3055074 -1.8725516 0.96413577
H -0.98758763 0.63555557 2.0790577
H 0.5113363 1.8746432 0.3721818
