10

O -2.1149282 0.046228595 -0.56553745
C 0.10326635 1.0368831 0.08099369
N -0.24244182 -1.2046906 -0.12919463
C -0.82409745 -0.07656172 -0.22658749
C 1.1134261 -0.872832 0.2537047
N 1.2588936 0.5726023 0.36756364
H -0.1293423 2.0992916 0.07872638
H -2.3594131 0.9822453 -0.5881939
H 1.3665215 -1.3339645 1.2148542
H 1.8281156 -1.249202 -0.4863291
