10

O -1.90233424 1.08443885 -0.00278694
C 0.69406811 -1.12488559 -0.56464271
N -0.65636979 -0.66464652 -0.80880931
C -0.77542767 0.36166818 -0.06517852
C 0.46943898 0.62584350 0.69303490
N 1.34980613 -0.25355743 0.40189744
H 1.27454047 -1.13294124 -1.49365963
H 0.68795904 -2.14910103 -0.17547151
H -1.78461461 1.82105185 0.61361944
H 0.64293378 1.43212906 1.40199674
