11

N 1.1987468 0.050965574 2.1228788
C -0.84123415 0.0052084927 0.5577446
C 0.033814624 -0.56599724 -1.216529
C 0.34952587 0.68374425 -0.35741326
C 0.15097664 -0.08042661 1.5672972
O -0.9708698 -1.0869693 -0.30068362
H -0.41793787 -0.3889442 -2.2020483
H 1.4842479 0.5653945 1.1176518
H -0.057957612 1.6054175 -0.79427105
H 0.8448614 -1.2987739 -1.3251336
H -1.774174 0.5103805 0.83050627
