11

N 2.03245333 -0.18773433 1.15795884
C -0.40379091 0.43799018 0.37704358
C -0.76180905 0.46839132 -1.10674832
C 0.91566314 -0.19541043 0.57163272
C -0.14048072 -1.07524420 0.08850095
O -0.40542771 -0.91265062 -1.29978941
H -1.83696584 0.60761799 -1.26953477
H -0.18821256 1.14269498 -1.75293960
H 2.24835263 0.75479083 1.48495916
H -0.96342352 0.93112558 1.16534019
H -0.49635888 -1.97157148 0.58357640
