10

O 1.0948853 -2.3615177 -0.12640093
C 0.52917075 -1.348879 -0.18645455
O 1.6199377 0.13887651 0.24507448
C -0.6211607 -0.5670029 -0.15383838
C -0.45155546 0.9269331 -0.44015822
C 0.5258328 0.69526684 0.6221772
H 0.29162863 0.8893777 1.6735592
H -0.04885734 1.207749 -1.4128637
H -1.3529269 1.4707644 -0.1619154
H -1.5869548 -1.0515683 -0.05917966
