10

O 0.80263424 2.05583174 -1.36284921
C 0.74128406 0.94032611 -0.91252229
O 0.77665851 -0.64032550 2.15635940
C 0.15287635 -0.45892623 1.15626799
C -0.68587451 -0.99224099 0.09254710
C -0.26013320 0.51800376 0.10767528
H 1.44976012 0.14162677 -1.22447244
H -1.73611944 -1.19191025 0.28983785
H -1.01317169 1.26289314 0.35316405
H -0.22791443 -1.63527836 -0.65600764
