10

O 0.95316863 2.0931134 -1.1619163
C 0.6714105 1.1143435 -0.5492837
O 1.1278255 0.75469 0.7065729
C 0.4995877 -0.53900856 0.5664136
C -0.96518344 -0.3693383 0.508869
C -0.120065235 -0.14820889 -0.7432346
H 1.076299 -1.4067484 0.8482986
H -1.5548488 -1.2795848 0.4761476
H -1.4280518 0.47263926 1.0164728
H -0.26014206 -0.69189703 -1.6683398
