12

C 0.5571265 -0.6509931 -1.8496124
C -0.08212453 -0.7400566 -0.4802195
O -0.6092704 -1.74397 -0.05202443
N 0.008333801 0.4230275 0.26810557
C -0.47394097 0.5413994 1.5622029
N -0.3463554 1.6449547 2.1750598
H 0.13558842 -1.4314793 -2.482517
H 0.39995492 0.32973978 -2.3103695
H 1.6358018 -0.8197535 -1.7535785
H 0.45125633 1.2456267 -0.11840175
H -0.93424654 -0.37588602 1.9337198
H -0.7421238 1.5773904 3.1076345
