12

C 1.1346451 0.5599578 0.08082722
C -1.185141 -0.18343878 -0.8214154
O 1.8331332 1.5206693 -0.17347047
N -1.105225 -0.49788383 0.59755296
C -0.368712 0.6591424 0.08751645
N 1.598674 -0.6926458 0.3364788
H 0.96426874 -1.3605784 0.7485405
H -1.9429235 -0.20341884 1.0889693
H -0.6864786 -0.89397675 -1.4740809
H -2.1082654 0.24255724 -1.2105223
H -0.7300837 1.6611705 0.30022874
H 2.596108 -0.8115546 0.4393751
