12

C 0.41184193 0.49541685 -1.6729263
C -0.59073967 -0.8680769 -0.066904046
N 0.3390857 0.44480386 1.742109
C -0.6335866 -0.39056256 1.1780497
O 0.5100133 -0.67138594 -0.86678636
H -1.4874632 -0.62323713 1.8059466
H 0.22970767 1.3817624 -1.0535201
H 1.2448468 0.3178298 1.3045652
H 1.3635683 0.5986362 -2.2019453
H -0.40136036 0.39843026 -2.4074562
H -1.3890121 -1.458312 -0.5098764
H 0.4030983 0.37469518 2.7487438
