10

C -0.4713263 -1.2124784 0.39319202
C 0.018266736 0.041777074 -1.0238568
N -0.96374345 -1.0522246 -0.7815805
C -0.018178554 1.2640369 0.5094827
N -0.5101998 1.3885835 -0.66942066
C 0.5851117 -0.12316784 0.40029287
H 1.6199235 -0.32524794 0.676366
H 0.5850113 -0.021613043 -1.9545054
H -0.77866066 -1.9507319 1.1316762
H -0.06620443 1.9910663 1.3183537
