10

C -1.0196306 -0.10227982 -0.7971035
C 0.40177542 0.16327605 1.2157863
N -0.44953722 -1.2664849 -0.9669156
C 0.7284185 -0.7957435 -0.4005578
N 0.8978309 -1.0145792 0.957757
C -0.23560788 0.78496253 0.05334041
H -1.9799317 0.14657727 -1.2463846
H 1.5375917 -0.40409294 -1.0173953
H -0.35412315 1.8661115 0.0005897395
H 0.473214 0.6222528 2.2008834
