10

C 0.8185504 -0.09449803 0.78390944
C 0.44651246 1.1360245 0.2603983
N -0.51112956 1.2626173 -0.6581878
C -1.0911746 0.12709107 -1.0446144
N -0.8233451 -1.1064692 -0.6192995
C 0.13981059 -1.2047341 0.29896054
H 1.5986257 -0.18580686 1.5311655
H 0.92808306 2.0546927 0.5873567
H -1.8743429 0.21754752 -1.7945453
H 0.36841002 -2.2064648 0.6548568
