10

C 0.8196223 -0.09609696 0.7849524
C 0.4461069 1.135821 0.26149693
N -0.5109119 1.2613181 -0.6587258
C -1.0925757 0.12670335 -1.04604
N -0.8236096 -1.1049745 -0.6187983
C 0.1391657 -1.2038469 0.30033627
H 1.600651 -0.18594861 1.531117
H 0.92899 2.056387 0.58674705
H -1.8756329 0.21813178 -1.7957001
H 0.36819407 -2.207494 0.65461475
