10

C 0.82049996 -0.09588748 0.7832553
C 0.44767308 1.1363068 0.26140597
N -0.5128107 1.2610184 -0.6565933
C -1.0948446 0.12645201 -1.0448909
N -0.822926 -1.104224 -0.6183736
C 0.13983698 -1.2042814 0.29868773
H 1.6021286 -0.18743324 1.5291381
H 0.9304348 2.0547757 0.5864513
H -1.8788813 0.2202425 -1.7931107
H 0.36888906 -2.2069695 0.65403026
