10

C 0.2791813 -0.18129474 -0.80397505
C -0.82875013 -0.058029942 0.25476637
N -0.06723495 -1.0159162 1.1250972
C 0.8435439 -1.1215887 0.2249596
N 0.6282551 1.2609031 -0.56459445
C -0.3095438 1.3543873 0.3089985
H -1.8857814 -0.2793955 0.10671431
H 0.14814715 -0.47651666 -1.8454599
H -0.5601994 2.2357562 0.8997337
H 1.7523822 -1.7183049 0.2937597
