10

C 1.18785093 -0.22794851 -0.33748483
C -0.16154606 -0.01484872 0.01111750
C -1.31399139 -0.76044324 -0.38287660
C -2.25859720 -1.40881258 -0.73464533
N -0.22944556 1.04674441 0.81518375
N 1.02785663 1.41616806 0.91440065
N 1.92207949 0.70150798 0.25418039
H 1.30435565 2.21153576 1.46797363
H -3.10758551 -1.97787262 -1.04196047
H 1.62902291 -0.98603022 -0.96588862
