11

C 0.51983117 0.70740425 -1.36119260
C -0.62999232 -0.82166540 0.76506469
O 0.70106498 -0.36817990 0.80879305
C 1.18598639 0.27535915 -0.29441007
O -1.57851872 0.19697820 0.80305916
H -0.80069883 -1.37674493 -0.16280765
H -0.55588578 0.64164817 -1.46204830
H -0.71151883 -1.49086403 1.62989586
H 1.08153590 1.16667025 -2.16686513
H -1.47449779 0.67715013 1.63582700
H 2.26269388 0.39224425 -0.19531608
