12

C -0.29791246 -0.33825588 -1.73726397
N -0.99253021 -0.73689160 -0.51437753
C -0.71122592 -0.44198290 0.75235487
N 0.39866169 0.34184394 0.87007654
C 0.82744276 0.74190594 2.12757131
O 1.80122787 1.43325901 2.29597868
H -0.82168044 -0.76820848 -2.59355437
H 0.73402929 -0.70903941 -1.74466322
H -1.80825628 -1.31466784 -0.64059718
H -0.29275285 0.75234336 -1.84991848
H 0.17651508 0.35395974 2.92619954
H 0.98648105 0.68573434 0.10819359
