9

N 0.6257423 -0.3225991 -0.47190762
C -0.18028593 0.3699985 0.25976285
N 0.10342173 1.627874 0.6285226
C 0.1802349 -1.6089965 -0.7644153
O 0.8040447 -2.3988159 -1.4301223
H 0.9592367 2.050305 0.3072345
H -0.53642875 2.1748831 1.1796693
H -1.1399283 -0.011920421 0.6276218
H -0.81603724 -1.8807287 -0.33636573
