9

N 1.266588 -0.15690982 -1.5627959
C 0.21989469 -0.023376714 -0.862627
N 0.2934138 -0.036906585 0.52163815
C -0.7843018 0.09257135 1.3643826
O -0.70715743 0.07569043 2.56747
H 1.0423222 -0.12474615 -2.5516882
H -0.8006347 0.11045453 -1.2358794
H 1.2093697 -0.1522265 0.9386732
H -1.7394941 0.21544945 0.8208259
