10

O 0.99315053 0.5045286 -1.7971637
C 0.3829818 0.18264706 -0.6551622
C 1.1488343 -0.2785373 0.4346141
N 0.5634939 -0.60431623 1.5679162
N -0.76322216 -0.49285057 1.6786882
C -1.4290808 -0.05343043 0.6269541
N -0.921124 0.29936975 -0.56503165
H 0.30359477 0.7954563 -2.4162877
H 2.2268257 -0.38098943 0.3792241
H -2.5054543 0.028122246 0.7462488
