10

O -1.4958413 -2.3070843 -0.73294777
C -0.18747517 2.682164 -0.045985665
C -1.3678364 -1.3843448 0.2067446
N -0.1109279 -1.2548646 0.63041306
N 0.35168082 1.6546559 -0.22889256
C 0.83903486 -0.43831107 0.4401622
N 0.8485115 0.57006156 -0.55957454
H 1.7542772 -0.5287096 1.0234355
H 0.008216477 3.6828227 0.2908357
H -0.63964015 -2.67639 -1.0241905
