10

C -0.9915803 0.45429152 -0.4139969
C 0.23907566 -0.852993 1.3084166
N 0.18011864 -1.2214261 2.3996575
N 2.4453905 0.96347743 -0.61964285
C 0.25438395 -0.3904172 -0.09246231
C 1.4957427 0.35900018 -0.3668619
H -1.8929998 -0.13505039 -0.23095672
H -1.0227048 1.3511333 0.20964518
H 0.2643431 -1.281682 -0.7296743
H -0.9717698 0.75366634 -1.4641247
