10

C -0.15474816 1.15499765 -0.05512751
C -0.16864772 -0.34825189 0.27561690
N -1.09971094 -1.72959282 -1.75821648
N 2.22671772 -1.14901844 1.00208069
C 1.17214838 -0.82070669 0.67023663
C -0.67350701 -1.14274249 -0.86095464
H 0.50831371 1.35947446 -0.89937957
H -1.16431915 1.48473339 -0.30973877
H -0.83984399 -0.52845617 1.12267843
H 0.19359710 1.71956284 0.81280476
