10

C -0.22588785 0.9741303 -0.36891824
C -0.6312559 -0.038631078 -1.2388189
N -0.4541959 -1.3345311 -0.9932808
N 0.13186528 -1.7140983 0.14087194
C 0.54329044 -0.7902374 1.006267
C 0.38943112 0.58111393 0.80434686
H -0.38873744 2.0192714 -0.6119638
H -1.1224858 0.18666568 -2.1820195
H 1.0183439 -1.1807317 1.9025259
H 0.7396321 1.2970481 1.54099
