9

O 1.86116082 1.15013191 -1.92221525
C 1.46600580 0.55647986 -0.99765968
N 1.22892634 -0.10252263 -0.00291484
C -1.23088519 0.06130013 0.07120995
C 0.04441501 -0.47977564 0.69061044
O -1.24691429 0.74700998 -0.91492580
H -0.04354132 -1.57403274 0.74068095
H -2.16076420 -0.22308050 0.60148370
H 0.08159705 -0.13551026 1.73373044
