12

N -0.37822366 0.4297371 -2.1708915
C -0.123817265 0.056282517 -0.8697894
N -0.48959738 -1.145066 -0.3963186
C 0.39946812 0.25718454 1.1679432
O 0.8685685 0.79269254 2.3048997
C -0.18433182 -1.0042816 1.0474117
N 0.439736 0.90878314 0.004233404
H -1.344833 -0.9444377 0.46221069
H -0.46479785 -0.33775964 -2.8175037
H -0.10559298 -1.8812153 1.6758939
H 1.1857326 1.6790655 2.0872176
H 0.19768877 1.1890149 -2.4953072
