10

N 0.9786926 0.59813464 -0.08368687
C 0.2677882 -0.5797886 -0.65272254
O -0.9744158 0.4842331 0.960705
C -1.1315595 -0.4372525 -0.21749
C 0.21908812 0.9571982 0.93529326
N 0.6526083 -1.6866013 -1.0805968
H 0.5468954 1.5908356 1.753911
H -1.8162076 0.08526636 -0.8932701
H -0.7160564 -1.7830342 -0.60620284
H 1.9731667 0.77100873 -0.115940034
