10

N 0.8007167 -1.7535448 0.64151496
C 0.41862696 -0.6216302 0.1431127
O -0.12980561 1.3831493 -0.81172246
C 0.83708453 0.37453306 -0.74817294
C -1.0971318 1.0625448 -0.025222205
N -0.8534469 -0.09098535 0.5668312
H 1.7096113 0.5288333 -1.3595904
H -1.9594737 1.7033435 0.083865315
H -1.4355814 -0.57332736 1.2354897
H 1.7094004 -2.0129163 0.273894
