10

N 1.67966767 -1.13434886 -0.13991847
C -1.14930949 0.63295708 0.78216932
O -1.22209323 0.93680341 -0.46661801
C 0.62159654 -0.39155643 -0.20604653
C -0.15023968 0.32779133 -1.12726622
N -0.10394775 -0.13777156 1.01398296
H 0.19592405 -0.51594142 1.90038187
H -1.88219836 0.99853254 1.48600531
H 2.10253483 -1.22960333 -1.05656167
H -0.09193450 0.51313718 -2.18612894
