10

N 0.8037099 -0.15881005 1.6811887
C -0.38066226 0.13970505 1.3639923
O -0.79493064 0.20742984 0.08864815
C 0.21373528 -0.08701709 -0.8723538
C -0.38210213 0.0399407 -2.2048864
N -0.81278586 0.13053599 -3.274234
H 0.9181318 -0.15649562 2.6922407
H -1.2151815 0.37962496 2.0274284
H 0.5957983 -1.102237 -0.7285355
H 1.0542872 0.60732317 -0.77348894
