10

O 0.33669522 1.1896325 -0.8077287
C -0.2465559 -0.7254879 0.4242618
C 1.4214257 0.69846684 -0.22562075
C -0.78696203 0.28506944 -0.58927006
N 1.2042819 -0.4264567 0.47033334
H -1.6192467 0.8911657 -0.22589916
H -0.37133464 -1.765693 0.11076946
H -0.6718097 -0.6170844 1.4249874
H -1.0460732 -0.16636671 -1.5513982
H 1.7795795 0.6367541 0.9695648
