10

O 2.0068123 1.1487434 0.43148547
C 0.9611277 0.60077035 0.20449086
C 0.4325349 -0.8492104 0.23154634
C -0.9148303 -0.24277581 -0.23630428
N -0.2639287 1.0615205 -0.19723743
H 0.9235576 -1.5157804 -0.47894156
H 0.42644176 -1.3000021 1.2251995
H -1.2373248 -0.54814494 -1.235618
H -1.743707 -0.34891143 0.46867138
H -0.5906833 1.9937909 -0.413292
