12

O -0.46308004 -1.68640373 0.03922849
C -0.43572220 -0.44759656 0.69928542
C 0.78301840 0.34443692 0.18697390
O 1.70337805 -0.35763544 -0.58395239
C -0.27291060 1.20137339 -0.52785843
O -1.33505582 0.51304967 0.15968471
H -1.36274168 -2.02869295 0.09341734
H 1.32045187 0.87153574 0.97801101
H -0.59454461 -0.56975259 1.77923279
H -0.28032780 2.27235296 -0.30516179
H 1.24389287 -1.15021578 -0.90730831
H -0.30635848 1.03754834 -1.61155243
