9

O -1.7159722 -1.1088347 -0.2901329
C -0.9564675 -0.047784418 -0.23443645
C 1.4650245 -0.59776884 0.8940588
O 1.4681611 0.39339307 0.045250732
C 0.21684474 0.6377776 -0.61452985
N -0.9110208 1.1380439 0.2252238
H 0.4170623 1.1096694 -1.5722704
H 2.5133705 -0.5639332 1.2798728
H -2.4970024 -0.9605627 0.26696324
