11

C -0.62667499 -0.06166230 0.28445944
O 1.07010171 -0.64633725 -0.85457805
C -0.08411087 0.15576478 -1.14022581
C 0.76255519 -0.66935885 0.54741761
O -1.06432247 1.03036555 1.04021680
H -1.43093174 -0.79910124 0.32629890
H -0.37561898 1.70841569 1.03023187
H -0.66608988 -0.24008078 -1.98032374
H 0.17980116 1.20552327 -1.34694562
H 0.81359323 -1.68025584 0.96666170
H 1.42169734 -0.00327311 1.12678706
