10

O 1.7122016 -1.7773584 0.82502663
C 1.1532068 -1.4680566 -0.198155
C 0.19515125 -0.339449 -0.26163933
N -0.39483696 -0.04263737 -1.3953086
O -1.1926376 1.0300832 -1.1196836
C -1.0653648 1.3591537 0.18164295
C -0.19814755 0.5299463 0.797757
H 1.3185931 -2.0004756 -1.1532853
H -1.6609865 2.2049403 0.49997652
H 0.13282062 0.50385356 1.8236685
