10

N 0.43721757 -1.11701069 -0.73811558
C -1.07274613 0.21445473 0.40301126
C -0.78551939 -1.01110594 -0.35741879
C 1.11663884 0.07735221 -0.25062030
C 0.08418810 0.88933145 0.47324162
H -2.03802605 0.48821853 0.81045636
H -1.52037452 -1.77801454 -0.59246479
H 1.95191370 -0.21876764 0.39725827
H 1.55848425 0.61274648 -1.10018365
H 0.26822312 1.84279522 0.95483559
