10

N -1.0491252 0.26398003 0.36074606
C -0.6613195 -0.96621096 -0.10126164
C 0.66681486 -0.88688356 -0.43869537
C 1.0946112 0.4428096 -0.16887693
C 0.013203089 1.1291459 0.32363227
H -1.9729809 0.4969888 0.68136925
H -1.360137 -1.7885859 -0.15002157
H 1.2729629 -1.6887507 -0.83564633
H 2.0866861 0.8432848 -0.32128465
H -0.090716064 2.1542218 0.6500389
