10

N 0.8812352 -0.40872708 -1.0198301
C 1.0834051 -0.035545148 0.3750284
C -1.1563826 0.13274892 -0.06595461
C -0.3810113 -0.30417272 -1.2367026
C -0.2699433 0.3018123 0.92628056
H -0.8085084 -0.52679056 -2.2119436
H 1.7840012 0.80726355 0.42473644
H -0.46527463 0.62089926 1.9435927
H -2.228985 0.2801745 -0.0432996
H 1.561464 -0.867663 0.90809244
