11

N 1.5760345 0.9757016 0.50784874
C -0.056685008 -0.07101284 -1.2964865
C 0.73368305 0.20216615 0.96808213
O -1.1185269 0.23258215 -0.38733932
C 1.0382929 -0.5596662 -0.3621175
C -0.7778209 0.24105489 1.0120232
N 1.0992638 -1.519026 0.41017422
H -1.2256627 -0.62268716 1.5074525
H 0.22255386 0.82207423 -1.8605785
H -0.37470192 -0.8777779 -1.9566453
H -1.1164303 1.1765909 1.4575864
