11

N 0.19187936 0.08962557 -1.74736449
C 0.10333770 -1.27551339 0.28010076
C -0.69827492 1.06467659 0.31249770
O -0.80783713 -0.28183331 0.79039607
C 0.93686948 -0.45792127 -0.70911445
C 0.46267118 0.94587305 -0.68798064
N 1.65909092 0.56246224 -0.09827879
H -0.46222703 1.73165565 1.14478048
H -1.62835568 1.35742476 -0.17972088
H 0.70877838 -1.66536729 1.09997365
H -0.46593269 -2.07108274 -0.20528942
