11

N -2.0000558 -0.5229869 -1.9132518
C -1.5758758 0.026575962 -0.99015594
C -0.9993557 0.694665 0.1954072
O -0.31211492 -0.20691788 1.0273832
C 0.80489296 -0.8216732 0.4344153
C 1.8551729 0.15848519 0.07877765
N 2.6513717 0.9475167 -0.19822621
H -1.802581 1.1156276 0.80112004
H -0.34724373 1.5118916 -0.14432527
H 1.1983598 -1.5184714 1.1767594
H 0.52742916 -1.3847128 -0.46790358
