11

N 0.35828143 -0.5701582 -1.6262494
C 0.4522062 1.2302505 0.027787486
C 1.1065123 -0.012006788 -0.59795
O -0.76446795 0.6839168 0.5519088
C -1.0189637 -0.7255947 0.3889664
C 0.2204516 -1.1805114 -0.38477734
N 1.402034 -1.0026392 0.32805577
H -1.0832382 -1.1969197 1.3710344
H -1.9427484 -0.8619282 -0.17728266
H 1.0484015 1.6473472 0.84256095
H 0.22153105 1.9882437 -0.72405434
