11

N 0.10480646 0.53129716 2.28152711
C 1.14376641 -0.11736292 0.16765149
C 0.02153688 0.24760193 1.05517522
C -0.82733137 -0.13303502 -1.03336975
C 0.65992506 -0.34169629 -1.04914773
O -1.12964940 0.22771464 0.31585943
H 2.16479531 -0.17187168 0.52110736
H -0.81258430 0.74787097 2.66876732
H -1.38688848 -1.03837248 -1.29210037
H -1.14784435 0.67695114 -1.69786714
H 1.20946785 -0.62909754 -1.93760283
