11

N 0.45043838 1.2932863 1.9034555
C -0.9067599 -0.7885648 -0.5709471
C 0.43080917 -0.41029117 -1.1397513
C 1.0566545 0.39075965 -0.28437802
C 0.1849282 0.5895529 0.8907268
O -0.96687967 -0.12166513 0.6914262
H -0.31454787 1.2673457 2.5762022
H 2.0309947 0.85396856 -0.3650065
H 0.7869252 -0.7595811 -2.1015866
H -1.0102893 -1.8666532 -0.4075804
H -1.7422732 -0.44815773 -1.1925607
