11

C 0.07352485 -1.19914048 0.34078446
N -0.18949117 -0.91212298 -1.69111048
C 0.01098456 0.17891004 0.07201247
C 0.09219880 1.34898213 0.99994543
N -0.15702161 0.32790354 -1.24007721
N -0.05624476 -1.87073034 -0.79963920
H -0.74399941 1.35164735 1.70850370
H 0.05783988 2.27413659 0.42316611
H 0.20100527 -1.71900039 1.27899902
H -0.30996308 -1.11574614 -2.67211024
H 1.02116661 1.33516037 1.57952616
