11

C 0.124125294 0.008041013 0.03178599
N 0.07318772 1.291094 -0.35611844
C 1.3078524 -0.86460143 -0.23340586
C -1.0682765 -0.2612241 0.6988366
N -1.210656 1.772519 0.04583772
N -1.8724065 0.8018099 0.6332498
H 1.07293 -1.6274365 -0.9830204
H 2.1369805 -0.2580986 -0.603759
H -0.81988484 1.6790118 -1.1246023
H -1.372043 -1.1648027 1.2128131
H 1.628191 -1.3763124 0.6783826
