10

N -1.57004076 -0.96762647 0.28462494
C -1.05586194 -0.54341516 -0.78556592
O 0.09544248 0.14466534 -0.80846134
C 0.68205195 0.35048535 0.47343992
C 1.91750652 1.11582855 0.28109317
N 2.89777187 1.72104555 0.19076595
H -1.42909040 -0.65428428 -1.80726728
H -2.43806287 -1.46232537 0.09754439
H -0.00216596 0.90457033 1.12351556
H 0.90244925 -0.60894340 0.95031124
