10

N -1.1279474 -0.93386996 1.1567031
C 0.2455451 0.84868014 -0.17784736
O 0.39463773 -0.5323565 -0.49447423
C 1.117727 1.6094291 -1.0776558
C -0.35631916 -1.355108 0.25293767
N 1.7825701 2.260929 -1.7624173
H -0.17578778 -2.3879814 -0.056975354
H -0.79410446 1.1627668 -0.31290668
H -1.6105218 -1.7057341 1.6089599
H 0.52420074 1.0332448 0.86367637
