9

O 1.6453696 -0.6777257 1.2759812
C 0.64936626 -0.24128167 0.51496017
N -0.90420955 -0.5772241 -0.95524937
N -0.018037548 -1.2008194 -0.3389142
C -0.8481259 0.8270533 -0.52397346
N 0.20550157 0.94429773 0.44732285
H 1.7625992 -1.6233755 1.0982362
H -0.66793925 1.4482601 -1.406861
H -1.8245245 1.1008154 -0.11150231
