9

O 0.75346893 0.24660562 -2.079095
C 0.26465437 0.10845849 -0.83669376
N 0.9912131 -0.31326118 0.17712954
N 0.07826679 -0.28060868 1.182154
C -1.1058205 0.1466597 0.72080064
N -1.0289749 0.40660894 -0.56846833
H 1.685442 -0.0067902724 -2.053399
H 0.34475616 -0.5591804 2.1123602
H -1.9830058 0.25150767 1.3452117
