9

O -1.1378675 -0.8849792 1.454037
C -0.31206194 -0.20421323 0.23300637
N -0.91890645 0.34972793 -0.7207293
N -0.15496965 1.0031193 -1.6841718
N 1.0542582 0.70748305 -1.6392733
C 0.41609508 -0.58918935 1.2796161
H 1.4844687 1.2606324 -2.3870533
H 1.0321368 -1.4616072 1.4263788
H -1.4631536 -0.18097378 2.0381892
