10

N 0.2267747 1.7674097 0.39359644
C -0.20153046 0.48001406 0.16311124
N -1.4035159 0.050364994 0.35836715
O -1.336846 -1.3379112 0.10269722
C -0.08078909 -1.6992047 -0.2587913
O 0.28081623 -2.8134818 -0.5188333
N 0.6443086 -0.51443887 -0.25324172
H 0.75541186 2.1750107 -0.3658717
H -0.53277135 2.3693047 0.67972326
H 1.6481413 -0.4770673 -0.30075744
