10

N -0.76724297 -0.28152218 -1.6290481
C 0.5613926 0.30549237 1.5943106
N 0.54695886 -1.343254 0.025991354
O 0.7497243 0.89192355 2.6232517
C -0.09327082 -0.31998745 -0.4317148
O 0.95900124 -0.96250767 1.320436
N -0.0856115 0.733886 0.44328064
H -0.58527905 0.5412965 -2.186271
H -0.6479647 1.5667658 0.4004523
H -0.637708 -1.1320928 -2.1606884
