10

N -1.384672 -0.25179604 -0.49955794
C -0.1297866 -1.0415691 1.1155711
N 0.10186563 1.3940074 -1.2845957
O 0.49034262 -1.5706483 2.078025
C -0.22268476 0.36074376 -0.4631071
O -1.3166374 -1.1957203 0.58561707
N 0.60734063 -0.10884389 0.5203353
H -0.5320466 1.53275 -2.0558212
H 1.3050963 -0.6032722 1.5131792
H 1.0811819 1.4843487 -1.5096459
