15

N -0.47528082 -2.2390885 1.2968014
C -0.3186284 -0.92630196 0.90158474
O -0.79946285 0.0009787751 1.5427815
N 0.4181574 -0.75934094 -0.24161127
C 0.93302023 0.53942806 -0.67141205
C -0.13513374 1.5824418 -1.015197
O -0.6103067 2.3006942 0.08935281
H -1.1843566 -2.3394017 2.0087392
H -0.47486445 -2.9558892 0.58829683
H 0.969188 -1.5546527 -0.5268557
H 1.5273544 0.34012052 -1.5691087
H 1.5988886 0.9683681 0.08819392
H -0.94145423 1.0811584 -1.5749025
H 0.32056794 2.3197522 -1.6876802
H -0.82768905 1.6417334 0.77101696
