15

N 1.469439 -0.6617515 -1.4528748
C 1.0248098 0.06796955 -0.41356453
O -0.7535882 1.0266017 -0.69603884
N 0.65879786 -0.65805626 0.71284
C -0.79981196 -0.7575277 0.8542719
C -1.393042 0.6141916 0.45670328
O 1.4359381 1.3098797 -0.27944478
H 1.0811197 -0.20600526 1.5158621
H -1.0518196 -1.069501 1.8739729
H 0.44201544 1.6786233 -0.45089716
H -1.2468204 1.3304509 1.2900194
H -2.4765353 0.5089751 0.30806273
H 1.7545586 -0.11795448 -2.251556
H 1.0191424 -1.5428836 -1.6302264
H -1.1642038 -1.5230117 0.16287012
