15

N -0.47326112 -2.237853 1.2973894
C -0.31904483 -0.92549926 0.9024874
O -0.8021362 -0.0015774951 1.5465639
N 0.4149662 -0.7593627 -0.24454889
C 0.9350422 0.5382679 -0.6740331
C -0.13440092 1.5828508 -1.0142128
O -0.6074141 2.3040495 0.089783885
H -1.1887025 -2.3444796 2.0025733
H -0.47358984 -2.954687 0.58935094
H 0.96876204 -1.5560733 -0.52009994
H 1.5297914 0.33847004 -1.5717216
H 1.6012045 0.9656924 0.08695263
H -0.94134325 1.0833226 -1.5744222
H 0.3199794 2.3210754 -1.6853323
H -0.8298533 1.6458037 0.76926917
