15

N 0.52094310 -0.11388030 0.95734601
C -0.91080803 -0.19387660 1.21160939
O -0.56056339 0.21000079 -1.03032006
N 1.77407964 -0.41100285 -0.99630958
C 0.71166227 0.33952517 -0.40543282
C -1.39687192 -0.57400400 -0.18349110
O 1.12373398 1.66055470 -0.56084074
H -1.13488176 -0.95157056 1.96759813
H -1.23815391 -1.64416359 -0.36893554
H 1.51585348 -1.38923068 -1.03899529
H 1.95801069 -0.06119489 -1.92777162
H 1.05666338 0.46230481 1.59548035
H -2.43840062 -0.31651591 -0.38931476
H 0.37149599 2.21839968 -0.35873743
H -1.35276318 0.76465467 1.52811501
