10

N 1.41865809 1.52793587 0.54252465
C -0.17536057 -0.52925967 -1.91990731
C -1.04909611 -1.01278177 0.26809663
C -0.29093399 -0.12494032 0.89639032
C 0.63061369 0.65563874 0.09409826
O 0.59318808 0.36706310 -1.28220657
O -0.98716940 -1.20408938 -1.08835956
H -1.78157415 -1.66776760 0.72729123
H -0.32956096 0.04025068 1.96410266
H 1.97123513 1.94795021 -0.20203049
