10

N -0.8176309 -0.9379494 1.7668356
C -0.19840586 -0.4912896 0.76402104
C 0.08024972 0.7683586 -1.1966386
C -0.817429 0.34100914 -0.2957367
C 1.4232748 -0.12055916 -0.7680701
O 1.3867744 1.1557097 -0.47332945
O 1.0862128 -0.82306063 0.40599918
H -1.8958886 0.404964 -0.379239
H -0.2068396 -1.506841 2.3503711
H -0.040317662 1.2096584 -2.1742134
