11

N -0.4307722 0.62794435 -1.9999781
C -1.0783762 0.17119126 0.3985899
O -0.45220175 -0.065090954 1.4791454
C -0.33400357 -0.019264871 -0.8895091
C 1.0093707 -0.022882747 1.1078942
O 1.0828329 -0.42388594 -0.16403002
H 1.3079654 1.0203995 1.275873
H -2.1663103 0.15824814 0.4621052
H 0.33970264 0.36850536 -2.6095192
H -0.75844955 -1.1052741 -0.8752091
H 1.4802418 -0.70988977 1.814638
