11

N 2.0220969 -0.4133414 0.635305
C 0.34656596 0.845514 -0.66998804
O -0.25678822 -0.96910024 0.63151497
C 0.8322477 -0.23858623 0.26637
C -1.4056178 -0.344789 0.06006954
O -0.95939654 0.41978478 -1.016129
H 0.95830953 0.91694003 -1.5700843
H 0.33560836 1.8142498 -0.15030381
H 2.0976675 -1.191492 1.286694
H -1.8845011 0.27723533 0.82887554
H -2.0861921 -1.1164151 -0.30232388
