11

N -0.4236183 -1.6473621 -1.0650967
C -0.23516843 -0.48822948 -0.35720897
C 1.0150367 -0.13074286 0.20051695
N 1.1645414 1.0159137 0.82322884
C 0.063337885 1.7886467 0.87322915
N -1.1224685 1.4911495 0.3738234
N -1.2778013 0.32505062 -0.24625355
H 0.17712198 -2.4305837 -0.8664329
H -1.3897349 -1.8852297 -1.2358632
H 1.878946 -0.7885236 0.12797453
H 0.1498075 2.749911 1.3720826
