11

N 0.100216724 0.09038562 1.8687733
C 1.2063586 0.24542913 -0.39640063
C 0.41432792 -0.3116091 0.6167514
N -1.4777288 -0.583899 -0.5837205
C -0.84522873 -0.061074354 -1.5694897
N 0.6140523 -0.10785364 -1.5517365
N -0.33453017 -1.2454219 -0.07790473
H 2.0714328 0.9011497 -0.37574813
H 0.15709148 1.0671424 2.1090589
H -1.3141841 0.4601375 -2.4000187
H -0.59180814 -0.45438626 2.3604355
