11

N -0.14253027 -1.47422862 -0.00603862
C -0.95125496 -1.20374042 -1.14980226
C 1.04148713 -0.61073209 0.08035910
N 0.43159966 1.67424210 1.07650176
C 0.31799278 0.41320763 0.55603448
N -0.91206665 -0.33419735 0.55349814
N -1.63037077 -0.20245089 -0.72530718
H -0.43205512 2.20177955 1.04558625
H -1.00811333 -1.76154410 -2.07646093
H 2.06471528 -0.90819835 -0.09446666
H 1.22059629 2.20586261 0.74009608
