11

C 0.9380827 1.0914124 -0.76799494
N 0.08939149 0.13703871 -0.087102905
C 0.37777627 -1.0707443 0.42668656
N -0.69785726 -1.6131848 0.9610742
C -1.6390872 -0.66327673 0.73546946
N -1.2161481 0.41149852 0.10634468
H 0.5716613 1.2453005 -1.7853421
H 0.9242077 2.0410237 -0.2279118
H 1.9567168 0.70080864 -0.7988255
H 1.3660612 -1.5108017 0.39081982
H -2.670805 -0.76907516 1.0467826
