11

C 0.65395176 -1.7524178 -0.330651
N 0.20840351 -0.56284964 -0.010662304
C -0.45291182 1.2781861 0.93815815
N -0.5834626 1.4846939 -0.50703514
C -0.19491348 0.40922123 -1.022512
N 0.05645513 -0.054896235 1.1803069
H -1.4369413 1.4308729 1.399899
H -0.13574645 0.15635309 -2.0761137
H 0.22150062 2.0469031 1.3361944
H 0.9419849 -2.4205675 0.46871397
H 0.72167975 -2.015499 -1.3762984
