12

N -0.9270006 2.0765097 1.7946082
C -0.85888886 1.2733871 0.9663944
C -0.76037014 0.22390032 -0.06769828
C 0.3948832 0.47469574 -1.0843188
N 1.4886479 -0.4097251 -0.67906946
C 1.0066838 -1.1938671 0.1955308
N -0.34523475 -1.053877 0.50703424
H -1.7324001 0.1368773 -0.5610175
H 0.07492806 0.21048099 -2.0973523
H 0.72378284 1.516529 -1.0930791
H 1.5755699 -1.9886515 0.6698296
H -0.64060134 -1.2662594 1.449138
