12

N -0.20435332 1.8191937 2.2574794
C -0.7914678 -0.15135008 0.5701501
C -0.9061021 0.32122537 -0.8671998
C 1.1200111 -0.65427256 -0.6102901
N 0.39584067 0.15330973 -1.340351
C -0.4605522 0.9464611 1.5436136
N 0.32767972 -1.0968778 0.4371837
H 2.053863 -1.1077921 -0.9075513
H 0.8100192 -1.3582647 1.2873462
H -1.3542514 1.2866514 -1.0748985
H 0.69956803 0.49649045 -2.2387495
H -1.690255 -0.6547745 0.9432673
