12

N -1.5244126 -1.0989404 -1.3416439
C -0.62029356 -0.45072156 -0.55168116
N -0.69064826 -0.6968898 0.76708573
C 0.22154915 -0.09108714 1.5154318
C 1.1949661 0.75563794 0.99444467
C 1.1561756 0.9368346 -0.38343322
N 0.2609836 0.350727 -1.168712
H -1.6488913 -0.74945873 -2.2785234
H -2.323683 -1.5016474 -0.8802201
H 0.16931722 -0.28614497 2.5853817
H 1.9325125 1.2425448 1.6211811
H 1.8724246 1.5891458 -0.8793112
