12

N -0.47063106 0.042746574 -0.8397071
C 0.8790502 0.074701786 -0.29230016
N 1.9096707 0.21394859 -1.1574514
C -1.190396 -0.8589861 0.11667328
C -1.3002807 0.5484032 0.2892735
C -0.47487733 -0.22967263 1.2837086
N 0.941972 -0.08043249 0.97398907
H 2.798464 0.4633436 -0.7550709
H -2.1138096 1.2597656 0.24385028
H -1.8894343 -1.6537094 -0.10977733
H 1.6945112 0.59941477 -2.0645685
H -0.7842391 -0.37952343 2.3113809
