12

N 0.11161798 0.31656832 -1.0282736
C 1.2036111 -1.2609982 -0.25838125
N -0.6033148 -0.03517213 1.1067
C -0.85345924 0.4255772 -0.10425701
C 0.63309634 -0.65374553 0.9725587
C 1.3797877 0.07953919 -0.31123278
N -2.0809088 0.90206605 -0.4510927
H 2.2155323 0.78129506 -0.33645514
H -2.6684377 1.1773463 0.3178829
H 1.0993024 -1.0019451 1.8931613
H 1.6908298 -2.1924667 -0.5139448
H -2.1276574 1.4619355 -1.2866656
