12

N -0.15807979 -0.04186381 -0.94957207
C -0.79683856 -1.21030843 -0.26213392
N 0.54355287 0.15022384 1.23467340
C -0.75700358 -0.48447196 1.05754348
C -1.42814905 0.06131520 -0.17828581
C 0.84541625 0.38569611 0.01608999
N 1.98826369 0.93201155 -0.45877223
H -2.37351795 0.46556706 -0.51412370
H -1.07055285 -2.16819899 -0.68527187
H -1.31207221 -0.81698685 1.92679775
H 2.55789580 1.42456229 0.20978929
H 1.96108542 1.30245412 -1.39673431
