12

C -1.19248789 -0.08885027 0.35702329
C -0.30296226 -0.47303783 -0.84126419
N -0.04522778 0.64059927 0.92591231
C 0.88398313 -0.09144543 0.06746750
O 1.95122898 0.64804507 -0.44059696
H 1.34260009 -0.96918271 0.53983272
H -1.49956847 -0.96692726 0.94222014
H 0.10040224 0.55963479 1.92669222
H -0.34579454 -1.50124000 -1.20524641
H -0.40314853 0.22398612 -1.67868166
H -2.06934790 0.53313975 0.15810260
H 1.58032307 1.48527841 -0.75146151
