11

C -0.9898301 0.89296055 -0.11667451
C 0.058431808 -0.194036 -0.17209062
C 0.6752667 -0.7409644 1.0459818
O -0.31352124 -1.4649861 0.33524328
C 0.8399903 -0.2441561 -1.4081347
N 1.4501936 -0.24644735 -2.3895936
H -1.7185235 0.76357067 -0.9224076
H -1.5148047 0.84623027 0.8408499
H -0.5276883 1.8791435 -0.22310273
H 1.6800152 -1.1568439 1.0047721
H 0.36047015 -0.3344712 2.0051568
