11

C -0.8209469 0.74747324 -0.8357643
C 0.5011855 0.62468386 -0.1278298
O 0.4923118 0.68532676 1.2898624
C 0.86749965 -0.544567 0.69152206
C -0.055214245 -1.6576248 0.8545697
N -0.774951 -2.5551095 0.9636807
H -1.1514546 1.7903585 -0.83398783
H -0.7216589 0.4231194 -1.8777046
H -1.5883727 0.13971928 -0.34949479
H 1.3364953 1.1634605 -0.5774387
H 1.915106 -0.81684 0.8025853
