12

O -1.9890243 0.9805248 -1.2701267
C -0.61143 0.102814324 0.45574597
C 1.2833014 -0.46140003 1.05611
N -0.4340884 -1.0597004 -0.2519741
N 0.34774998 0.3328912 1.433109
C -1.211864 1.1598197 -0.20489268
N 0.86003304 -1.2078283 -0.053112365
H 1.3226236 -2.0258813 -0.42963016
H -1.8559705 0.06315852 -1.5558474
H 1.2492844 0.56949383 -0.9018929
H 2.2561736 -0.6127193 1.5059049
H -1.216789 2.1588266 0.21660638
