13

N -0.8072454 -1.3295451 0.24463958
C 0.22743694 -0.55549335 -0.40195027
C 0.36856842 0.79415494 0.3215739
N -0.9292112 1.4550765 0.3135853
C 1.49637 -1.2978173 -0.35150358
N 2.499873 -1.8699765 -0.34289232
H 0.032474775 -0.35418916 -1.4698464
H 0.6473995 0.5874773 1.3601594
H -1.613659 -0.7263528 0.36480275
H -0.95526665 2.205259 0.99337846
H 1.1736586 1.378408 -0.1468261
H -1.0366551 -2.1596777 -0.2885025
H -1.1037439 1.872676 -0.59661824
