13

N 1.46454041 -2.74242554 -0.44494455
C -0.01218461 -0.57111369 -0.44220483
C 0.65630723 0.53215151 0.39498116
N -1.31372529 -0.86032055 0.11470930
C 0.80786422 -1.79220765 -0.42703011
N -0.22717517 1.68981516 0.41464812
H -0.04145691 -0.23474077 -1.49336236
H -1.84841400 -1.47115804 -0.49107529
H -0.15361295 2.20117714 -0.46080549
H 1.65932974 0.73867305 -0.00528761
H 0.03479976 2.32998246 1.15432803
H -1.78670419 0.02367674 0.26775433
H 0.76043150 0.15649038 1.41828909
