13

N 0.053229373 -1.7532136 0.10616626
C 0.47294942 1.8860745 -0.617068
C 0.41514578 0.62615955 0.028475866
N 0.5473442 2.9292808 -1.1229227
C 0.109070845 -0.5961139 -0.78992015
N -0.5850872 0.7106603 1.2524244
H -0.2895312 -2.5729506 -0.3883764
H -1.3376483 1.3925894 1.1670521
H 0.5537421 0.79593575 1.3904331
H -0.89448977 -0.25092196 1.3989867
H 0.99259937 -1.9671788 0.43173113
H -0.88848853 -0.52728033 -1.259692
H 0.8511639 -0.67304146 -1.5972903
