9

C -0.6858778 -0.22364737 0.19058268
C -1.9891012 -0.6558484 0.5724483
C 1.7110169 0.91362995 -0.12536769
C 0.40303072 0.29267922 0.049372826
O -2.3616364 -1.644057 -0.23221435
H 2.2677917 0.42355767 -0.92964715
H -3.2426116 -1.918032 0.057636213
H 2.2970223 0.8388366 0.79576945
H 1.6003655 1.9728812 -0.37858033
