10

O 0.14138098 -0.13460959 0.75758938
C -0.45413766 0.12074611 -1.41507156
C 0.95760990 0.08832217 1.86266212
O 0.73579787 -0.42431458 2.91094882
C 0.52703879 0.50251493 -0.35015037
O -1.49354940 -0.78256518 -1.15280316
H 1.77981015 0.77109962 1.60187719
H 0.16494977 -0.26800968 -2.23993110
H -1.50271980 -0.95759899 -0.20371155
H -0.85618055 1.08441514 -1.77140983
