10

O 0.4503733 -1.2647564 -2.338004
C -0.44370973 -0.98544425 -1.6005889
C 0.36021572 0.26262686 1.2612607
O 0.38586897 1.6606619 1.24863
C -0.20489456 -0.38906667 0.052695524
O -0.5042472 0.39846563 -0.9161285
H -1.4526697 -1.3965768 -1.5497838
H 1.3726836 -0.16337219 1.3808888
H 0.26398572 1.9617071 0.33576348
H -0.22760615 -0.084245384 2.125267
