11

N -0.604972 1.3436974 0.6656898
C -0.76139796 -1.0138185 -0.85399914
O 1.2144549 0.115780644 0.030931111
C 0.38328356 -1.0346013 0.14019684
C 0.6139611 1.2805384 0.33607283
O -1.7241292 -1.7297992 -0.7539749
H 1.0415832 -1.8773975 -0.09486852
H -0.6010022 -0.3349288 -1.7188271
H -0.018942578 -1.1494464 1.1505601
H 1.3364421 2.096562 0.24791707
H -0.8792806 2.3034136 0.85030174
