11

N -0.7426052 -0.8216594 0.30700448
C 0.010383145 -0.9484306 1.348948
O 0.961053 -0.12920584 1.5228031
C 0.4617672 0.89672 -0.124128684
C -0.03580713 0.5587742 -1.49037
O -0.746721 1.3170696 -2.106833
H 0.351219 -0.38897762 -1.9164503
H -0.15227734 -1.7379764 2.0955043
H -1.4859563 -1.4731838 0.08135213
H 1.5280744 1.1187562 -0.13441087
H -0.14912947 1.6081135 0.4165812
