11

N -0.4103714 -0.55004555 -1.4652977
C 0.19455628 -1.2954853 -0.6417506
O 0.767596 -0.8180707 0.4761854
C 0.69816947 0.5939444 0.6296501
C -0.7294233 1.0816762 0.80151665
O -1.0252045 2.2441924 0.7117789
H -0.7901658 -1.096684 -2.2327676
H 0.34192294 -2.3772247 -0.68908685
H 1.1598431 1.1134322 -0.21381803
H 1.2570097 0.80864155 1.5459471
H -1.4639325 0.2956238 1.0776426
