11

N -0.50097620 1.50870768 0.29577148
C -0.88268567 -1.20086882 -0.34007269
O 1.19858055 0.07059056 -0.21836702
C 0.41997030 -0.95120390 0.39471176
C 0.64135660 1.29517333 -0.20213733
O -1.79995071 -1.80871554 0.14842691
H -0.88960308 -0.83852308 -1.39040747
H 1.04087452 -1.85083174 0.33093659
H 1.32255486 2.01125139 -0.66994700
H 0.20483694 -0.72321503 1.44235096
H -0.75495815 2.48763545 0.20873377
