9

O -2.29752539 0.86122393 -0.20859914
C -0.54628827 -0.31884030 0.88012528
C -1.15854698 0.48177956 -0.19092743
N 0.67765074 -0.70196266 0.86187668
C 1.39882068 -0.30584677 -0.26084192
N 0.99573510 0.38609591 -1.26070130
O -0.32704027 0.79914772 -1.23015444
H -1.17989070 -0.58725079 1.72207568
H 2.43708513 -0.61434671 -0.31285337
