9

O -1.425848 0.6104326 -1.912635
C 1.095379 -0.049968734 0.9570413
C -0.66850835 0.3781685 -1.0103866
N 1.4102331 0.8543459 0.10612217
C -0.8838745 -0.6258345 0.042515192
N -0.0493402 -0.84107906 0.992444
O 0.50040334 1.0828203 -0.91431344
H -1.8044145 -1.2027569 -0.0037812118
H 1.8259703 -0.20612831 1.7429936
