10

O -1.574109 -1.1146208 -1.0622379
C 0.7651658 -0.5932336 -0.6250111
C -0.87036574 0.5446572 0.58583176
N 0.5533859 0.8964099 0.8827372
N 1.5421487 0.14978948 0.0886387
C -0.6498462 -0.39386725 -0.36936855
H 0.71548146 1.8908674 0.7160889
H -2.439513 -0.8209812 -0.7440856
H 1.1890576 -1.2907534 -1.3400975
H 0.76859426 0.7317322 1.8675042
