10

O -0.16604404 1.20586650 -1.83490143
C -0.11976724 0.49136935 -0.67681351
C 0.92358305 -0.49791421 -0.47657063
N 0.86599520 -1.10574373 0.66022693
N -0.31784789 -0.46416322 1.25400833
C -0.95850648 0.57350360 0.38696988
H -0.92300217 1.80318619 -1.75370565
H 1.70749393 -0.74615622 -1.18468525
H -0.98246715 -1.20557408 1.48158381
H -0.02943717 -0.05437457 2.14388746
