10

O -0.37744698 1.6395292 -1.2169175
C -0.16801023 0.60659456 -0.35524812
C 0.5156133 -0.57289165 -0.5354476
N 0.40778098 -1.2365596 0.64990944
N -0.28840086 -0.5688629 1.5686796
C -0.6484832 0.5583658 0.9731789
H -0.03475818 1.3992763 -2.085103
H 1.0496497 -0.9825481 -1.3796861
H 0.7809694 -2.140684 0.8816698
H -1.2369139 1.29778 1.4989645
