10

O -0.53822887 -1.8065225 1.025148
C -0.25289008 -0.6725462 0.33943763
C -0.54324365 0.6202139 0.8547728
N 0.45031297 0.8918939 -0.9717581
N -0.12793167 1.5824435 0.061027568
C 0.3123704 -0.58587027 -0.9177288
H -1.0268954 0.860004 1.7942528
H 0.549356 1.3799742 -1.8541282
H -0.24912466 -2.5462806 0.4757756
H 1.426275 0.2766901 -0.80679923
