11

C -0.17991388 -0.69907915 1.76089112
N 0.20057443 0.02184099 -0.22231655
C 0.16761110 0.61374945 -1.54636020
C -0.77575081 -0.04655952 0.71374938
N 1.32365440 -0.55299140 0.22022034
N 1.10020032 -0.98987895 1.41723852
H -1.76733778 0.35482817 0.56328302
H -0.58833783 0.12206721 -2.16275440
H -0.58667884 -0.97199119 2.72333266
H 1.15307604 0.46471635 -1.98769800
H -0.04709682 1.68329798 -1.47958574
