11

C -1.3076489 -0.7882593 0.682569
N -0.1271976 -0.054722324 0.2655931
C 0.39675435 0.10006767 -0.97239476
C 1.4887844 0.9056814 -0.77016115
N 1.5696684 1.1936334 0.5532083
N 0.5942818 0.6139338 1.1739403
H -1.3660812 -0.7068206 1.7681339
H -2.2040386 -0.35458764 0.23233823
H -1.2213476 -1.8388673 0.39857113
H -0.031061415 -0.35705087 -1.8509464
H 2.2078867 1.2869917 -1.4808515
