9

O 1.0224051 1.3549708 -1.9883239
C -0.17835145 0.020123333 0.9753475
N 1.3189607 0.3939435 -1.0346876
O -1.4980427 -1.7004111 -0.0067882305
C -1.2209568 -1.0248749 0.95552015
C 0.5494449 0.26945525 -0.09148679
H -1.7452481 -1.1611784 1.9243381
H 1.7483321 1.2635884 -2.617733
H 0.0034562494 0.58438313 1.8838142
