9

O -1.8918407 -1.121153 -0.38839445
C 1.4006037 0.9004235 0.1884253
N -0.49939752 -1.8325883 -0.5783286
O 2.1345778 0.36709106 -0.61761284
C 0.09240782 0.3961809 0.5879098
C -0.33760497 -0.7431498 0.033706423
H -2.0640905 -0.70133394 -1.2463424
H 1.6841884 1.8491626 0.6864123
H -0.5188439 0.88536704 1.3342245
