9

O -1.253114 0.033749845 -1.6159135
C -0.50898224 -0.1314661 -0.5139927
N -0.6778916 -1.1462843 0.28725424
O 0.25411385 -0.97594446 1.2951066
C 0.9481098 0.14122634 1.0552068
C 0.52751714 0.7441297 -0.078708574
H -1.8790994 -0.7011742 -1.6670375
H 1.7116755 0.3845998 1.7805442
H 0.8776708 1.6511635 -0.54245955
