9

O 0.21256267 2.06950524 -1.58324205
C -0.75577201 -1.48546153 0.82239616
N 0.88365308 0.94073916 -1.13999754
O -1.25517177 -1.87554913 -0.20599809
C 0.13573999 -0.31376793 0.93093564
C 0.46463720 0.38645223 -0.13278786
H -0.93396587 -2.01064682 1.78390309
H 0.53884246 -0.02958326 1.89711491
H 0.70947411 2.31831216 -2.37232425
