11

O -1.5702909 0.059561998 1.8028555
C -0.69911116 0.015130641 0.7840605
N 0.39856124 0.7105063 0.6654878
C 0.9199797 0.3000701 -0.5389092
O 2.0790021 0.81433064 -0.9973348
C 0.14103356 -0.6372999 -1.1447861
N -0.92497927 -0.81118894 -0.25086853
H -1.2236763 0.7062383 2.431517
H 2.372048 1.449876 -0.3315406
H 0.22131097 -1.180282 -2.0718722
H -1.7138778 -1.4269435 -0.34860963
