11

O -1.80654732 0.04705662 1.48658860
C -0.67662370 -0.47257614 0.87506320
N 1.23394754 0.34726001 0.16988992
C 0.64908286 0.15396341 1.33702683
O 0.92675181 0.20967406 -2.13620757
C 0.39508456 0.00046375 -0.93665363
N -0.74032465 -0.43594860 -0.60803222
H -1.78004741 1.00901042 1.39537880
H 2.15670621 0.73973252 0.03960578
H 0.27489887 -0.06717452 -2.79420974
H -0.63292863 -1.53146188 1.17154976
