11

N -0.56491569 1.68959143 0.52583773
C -0.37620665 0.50992945 -0.10032376
C 0.63716433 -0.50655370 0.37153217
N 0.40556316 -1.48560638 -0.67412257
C -0.52401889 -1.13007779 -1.58152266
N -1.00368483 0.14844693 -1.17315039
H -0.22213171 1.86441296 1.45274875
H 0.40920922 -0.89468474 1.37080142
H 0.90377762 -2.35828472 -0.73415273
H 1.65615884 -0.10126017 0.35995695
H -1.32091531 2.26408668 0.18239501
