11

N -0.3587069 0.4973516 1.9617776
C -0.15634015 0.18136218 0.61504537
C 0.52549636 -0.8689016 0.056286305
N 0.34461713 -0.71472615 -1.3129638
C -0.4213285 0.38469365 -1.4940575
N -0.7387437 0.9565204 -0.35713315
H -0.74890095 1.4272372 2.0405889
H 0.47520664 0.41591027 2.5281057
H 1.0823566 -1.693816 0.4700641
H 0.71380556 -1.3132538 -2.0313914
H -0.717462 0.7276222 -2.4763222
