11

N -1.2587038 0.8067219 -0.41299638
C -0.0018462815 0.6195187 -0.16678591
C -1.9546288 -0.42358768 -0.22996767
N -1.0261366 -1.3233912 0.14706568
C 0.32547146 -0.80168116 0.22800621
N 0.9430215 1.5748724 -0.2843268
H -1.2606729 -2.282809 0.34174225
H 1.8645265 1.4662111 0.09809798
H 0.74472374 -0.87133 1.2382165
H 0.61403084 2.5106347 -0.47313142
H 1.0102147 -1.2751597 -0.48592055
