10

O -0.70187616 -1.7598543 0.12499159
C 0.008637999 0.6397776 -0.6332015
N 0.9745568 -0.16807473 1.0693792
C -0.2426489 -0.49695745 0.2769919
C 1.1979575 0.82292354 0.26830494
N -1.1521631 0.61249185 0.34742188
H -1.9819915 0.33481932 -0.18110694
H -0.14223018 0.79756784 -1.6926079
H 1.9799336 1.5693283 0.36126676
H 0.059824076 -2.3520217 0.058560017
