10

O -0.14875836 -2.03261054 -0.93744146
C 0.08361405 -1.39672755 0.05824390
C 0.49394346 0.07308678 0.01139566
O 0.79618344 0.55444356 1.27868225
C -0.65045940 0.85451169 -0.61435934
O -1.13755931 1.79048234 -0.02724411
H 0.20766689 1.31270460 1.43055586
H 1.34973861 0.14970043 -0.67975779
H 0.00585992 -1.81228054 1.08197070
H -1.00022929 0.50668920 -1.60204563
