10

O 1.252045 -1.3880736 0.98871803
C 0.35838842 -0.9481809 0.014024129
C -0.01860358 0.4972294 0.22223185
O 0.41771707 1.1496876 1.1466211
C -0.9808689 1.1517519 -0.7583543
O -1.4481803 0.5565623 -1.6925687
H 1.4041256 -0.64204013 1.5855188
H 0.7857993 -1.0476451 -0.99593097
H -0.5686668 -1.5421027 0.0166935
H -1.2017558 2.2128112 -0.5269534
