10

O -0.14005147 -1.05130316 0.51789698
C -0.02536555 0.28463615 0.32038953
N -0.01540636 1.06702869 1.46194737
C -0.02461690 0.51449058 -1.01676355
C -0.20350565 -1.57657863 -0.73994787
N -0.14827089 -0.70526515 -1.67837389
H 0.51231088 0.65647542 2.22111234
H 0.28844194 2.01415631 1.28000380
H 0.04648315 1.44769219 -1.55688391
H -0.29001916 -2.65133255 -0.80938091
