10

O 0.2518003 -1.1621807 -0.7119393
C -0.1845229 0.02832018 -1.2849746
N 0.5758779 1.0845032 -0.7590512
C 0.96721554 0.66062236 0.41030583
C 0.3606269 -0.65056235 0.5545528
N -0.8301811 -0.8260462 1.1203458
H -1.2770245 -0.18468043 -0.065751955
H -0.936564 -0.2336675 1.944206
H 1.4998523 1.2659855 1.1334988
H -0.42708054 0.017706051 -2.341192
