11

N -0.07114482 -2.7635622 -0.2807888
C -0.57325876 -1.737701 -0.11106902
C 1.1216598 1.2153748 0.8011595
O -0.589194 0.5695886 -0.74089664
C -1.1708503 -0.40121195 0.09414637
C 0.7908205 0.7614736 -0.56675637
N 1.3547949 1.5496215 1.8812809
H 1.0856857 1.5302076 -1.2835057
H -2.229169 -0.43517023 -0.16951707
H 1.3565805 -0.15575913 -0.77946293
H -1.0759242 -0.1328616 1.1554098
