11

N -1.9979011 -0.52172375 -1.913056
C -1.5753143 0.027671311 -0.9893041
C -0.998012 0.6962302 0.19534767
O -0.30936024 -0.20162007 1.0289698
C 0.8049763 -0.8220731 0.43676314
C 1.8547484 0.15409806 0.08079321
N 2.6493435 0.94323575 -0.20170014
H -1.8019384 1.1200638 0.7990692
H -0.34790522 1.5120313 -0.14990269
H 1.1951784 -1.5214334 1.1776134
H 0.5261846 -1.38648 -0.46459335
