11

N 1.4646697 -1.012454 -1.9951158
C -0.15602942 0.91932046 0.7116047
C 0.7029754 -1.1284598 -1.1358795
O -0.9453496 -0.14060181 0.35904744
C -0.23467174 -1.3059913 -0.008260564
C 0.092556275 1.7690158 -0.80911607
N -0.58588153 2.5103958 -0.14248578
H -0.5836132 1.4174434 1.5769426
H 0.33511293 -1.6811321 0.8522699
H 0.90054566 0.6924979 0.88431
H -0.9903145 -2.040034 -0.29331693
