10

N -0.95077807 0.14765406 0.7862174
C 0.78230065 0.43025315 0.25136173
C -1.453024 -0.44346908 -0.349387
N 1.7295715 -0.41787463 -0.12170066
C -0.07089381 1.3106363 0.574507
O -0.87120897 -0.65001464 -1.4062535
H 1.4247003 -0.9675958 -0.91986006
H 2.1493454 -0.9461676 0.6342448
H -2.4746366 -0.82483166 -0.17906317
H -0.26537606 2.36141 0.72993326
