10

N -0.1849609 0.91998416 0.3189826
C -0.5566454 -0.4526076 0.1768663
C -0.31347173 -0.1614743 1.4333949
N -0.90737724 -1.1890601 -0.8908474
C 1.0702605 1.252969 -0.18772572
O 1.4847251 0.8659705 -1.2558653
H -0.37230512 -0.97501546 -1.7243702
H -0.75545424 -0.06386696 2.408292
H 1.6105442 1.9743019 0.45207417
H -1.075315 -2.1712012 -0.730801
