11

N -0.4127507 -0.55254555 -1.4635855
C 0.1957129 -1.2963951 -0.6400372
O 0.7733955 -0.8181701 0.4708206
C 0.6972588 0.5948877 0.62933064
C -0.73152614 1.0804311 0.8022286
O -1.0265678 2.2443166 0.70966476
H -0.78675044 -1.0981947 -2.2336872
H 0.34162706 -2.3777828 -0.6882235
H 1.1538631 1.1189383 -0.21475321
H 1.2570021 0.80926394 1.5448225
H -1.4612641 0.29525056 1.0834193
