9

C -0.45269966 -1.361845 0.118513405
C -0.06761967 0.011248201 -0.6463697
C 0.38563406 1.1733928 0.16222823
C -0.24583082 -0.71189487 -1.6818788
O 0.34389597 -1.7479342 0.9256387
H 1.2669924 0.8925724 0.7465383
H 0.643629 1.999545 -0.5053112
H -0.3989799 1.4964483 0.8517184
H -1.4750216 -1.7515327 0.028922735
