10

N -0.7101502 1.3089782 -1.3035301
C 0.5591846 -0.9659868 0.93167096
O 0.5962896 -2.267123 1.1926066
N -0.09560035 -0.5019427 -0.054589704
C -0.024615057 0.90895194 -0.19788557
O 0.57007587 1.6623591 0.5449537
H -0.8163563 2.295732 -1.4637815
H 1.1371595 -0.37699223 1.6405797
H -1.2689372 0.641159 -1.8078635
H 0.052949626 -2.7051353 0.51783925
