10

N -0.7328992 -0.21820506 1.7008563
C -0.7450433 0.22171311 0.4161187
O 1.8122578 -0.31268883 -1.8242075
N 0.4320404 -0.12593324 -0.2734862
C 0.6616374 0.14550038 -1.5347586
O -1.6573604 0.8344337 -0.09805159
H 0.0005191153 0.6633535 -2.227021
H 0.08868861 -0.63585186 2.1033943
H -1.5005857 0.050199237 2.293154
H 1.6407452 -0.6225209 -0.5559983
