10

N 1.4806263 0.49983737 0.92097986
C 0.22436988 0.62098074 0.3764426
O -0.44707814 1.6272948 0.4439977
N -0.23117246 -0.5486775 -0.23318991
C -1.4595459 -0.6410627 -0.8681839
O -1.8586153 -1.6697655 -1.3552961
H 1.8785497 1.3778265 1.2199367
H 2.13009 -0.16583356 0.53347194
H 0.2905929 -1.4116507 -0.16370082
H -2.0078168 0.31105015 -0.87445796
