11

O -1.5695461 0.05878415 1.8046516
C -0.69852066 0.015594983 0.7854474
N 0.40048546 0.71077454 0.6644978
C 0.92067844 0.29950476 -0.5402573
O 2.0770423 0.8165087 -1.0011387
C 0.13986929 -0.6391094 -1.1439277
N -0.92577493 -0.8108417 -0.24858937
H -1.2216206 0.70763934 2.4301162
H 2.3734376 1.4489132 -0.3339433
H 0.21879236 -1.1804341 -2.0724893
H -1.714843 -1.4273345 -0.3443678
