12

O 1.0416942 1.0988059 -1.0124835
C 0.5995542 1.0167236 0.3186894
C -0.44687638 -0.0883772 0.44783902
O -1.4916497 0.18565647 -0.44726488
C 0.15726613 -1.4375877 0.113253534
O -0.32564867 -2.1414967 -0.739721
H 0.2363131 1.139092 -1.5487254
H 0.15774338 1.9593024 0.6723922
H 1.4716625 0.79354566 0.9440487
H -0.80591273 -0.13346986 1.4903661
H -1.6370054 -0.64170176 -0.9379816
H 1.0428593 -1.750493 0.6995875
