11

N 1.58634596 -1.31837324 -0.12751361
C -0.44945651 0.09198246 -1.17408916
C 0.38668788 -0.85953387 -0.51502433
N -0.88281517 1.42621435 0.58587760
C -0.83091956 1.55558150 1.78271080
N -0.76114088 1.41608759 -0.63674992
N -0.85255732 -1.14990166 -0.44068129
H 2.41075215 -0.76437670 -0.27910720
H -0.53015669 0.12492022 -2.25834007
H 1.60335351 -2.00722576 0.60757431
H -1.68009366 1.48462508 2.45534272
