10

N 0.99548851 -1.40433779 0.85363726
C 0.36614101 -0.91226552 -0.27144931
O -1.09341216 2.25808291 -0.45562830
N -0.11695356 0.39992703 -0.06845584
C -0.87911477 1.04124044 -0.98088167
O 0.27498524 -1.50783481 -1.31289820
H 0.68934937 -1.10264170 1.76483657
H 1.22932279 -2.38458081 0.78499072
H 0.17793052 0.88339650 0.77774505
H -1.64373685 2.72901380 -1.09189593
