11

C -0.69816900 0.41703913 -0.88357830
C -0.68543171 -0.38069964 0.43117994
C 0.58763846 -0.36930856 1.23825350
O -1.69350262 -0.94291338 0.77776967
C 0.59497935 0.46118910 -1.56757962
N 1.62591006 0.47964117 -2.08516947
H -1.46110441 -0.00934790 -1.54148925
H 0.96110687 0.65341139 1.35528919
H -1.00496196 1.44294327 -0.64703021
H 1.36315083 -0.93198427 0.70722186
H 0.41038417 -0.81997044 2.21513278
