11

C -0.98977417 0.8935381 -0.115840286
C 0.057182383 -0.19460343 -0.17246597
C 0.6757738 -0.73985803 1.044221
O -0.31588638 -1.4646457 0.335615
C 0.8381837 -0.24524316 -1.4091612
N 1.4496926 -0.24851784 -2.388805
H -1.7202979 0.76369697 -0.9192964
H -1.5120125 0.8483688 0.8436668
H -0.52622896 1.8779932 -0.22458148
H 1.6794 -1.159583 1.0023339
H 0.36396748 -0.33114603 2.0043137
