11

C 1.0079211 -0.3916492 0.9196116
C -0.20863788 -0.08716438 -1.7242025
C -0.43466297 0.023273466 0.78178734
O -1.2251611 0.011299507 1.6913944
C -0.8963269 0.53619623 -0.5925908
N 0.34914288 -0.59475714 -2.5972936
H -1.976644 0.38507432 -0.67505467
H -0.7128866 1.6169307 -0.62290424
H 1.1821511 -1.3078488 0.34494632
H 1.2440118 -0.5659318 1.9697045
H 1.6710927 0.3745769 0.50460184
