11

N 1.80209719 0.90456254 1.78480531
C -0.28886848 -0.87878911 -0.49980542
O 1.08434651 -0.95667037 -0.77865632
C -0.79645117 0.54749858 -0.35021085
C 0.72257068 1.01281758 1.36752831
O -0.48982143 1.12904483 0.94785770
H 1.58944271 -0.76143662 0.02265943
H -1.88378322 0.59076443 -0.39499240
H -0.80112587 -1.30931139 -1.36566280
H -0.35739894 1.18615048 -1.12009043
H -0.58100823 -1.46463086 0.38656737
