9

N -0.8088493 1.8459022 -0.12927912
C -0.11046682 0.8115329 -0.35042617
N -0.23623192 -0.30925867 0.45651236
C 0.48130402 -1.4718379 0.299292
O 0.36664978 -2.4404726 1.0094731
H -0.59896284 2.5741472 -0.80192685
H 0.6270524 0.68078876 -1.1486896
H -0.9025772 -0.26282817 1.2184464
H 1.1820818 -1.4279735 -0.5534019
