11

C -1.05148707 0.63977121 1.14620291
C -0.10849566 0.03351077 0.15634524
C 0.34873896 0.52351680 -1.07860874
N 1.19295631 -1.33421511 -0.72840796
N 0.45357250 -1.15986174 0.35076689
N 1.17628443 -0.36702983 -1.62075244
H -2.07250332 0.68025198 0.75222168
H 0.12490811 1.45241443 -1.58238410
H -0.75368009 1.66055316 1.40934452
H -1.05986586 0.03693565 2.05669984
H 1.74957130 -2.16584739 -0.86142773
