11

N 1.9155381 0.62027675 -1.2068713
C 0.8881722 0.26341873 -0.56666195
C 0.05421823 1.1200368 0.30174336
C -0.93415844 0.3840954 0.7977937
C -0.80609816 -1.0184232 0.276971
O 0.35035333 -0.99430084 -0.5589221
H 2.3063354 -0.15886177 -1.7337438
H 0.27097762 2.167575 0.46460333
H -1.7231764 0.69763196 1.4688476
H -1.6698669 -1.3290527 -0.3200148
H -0.6522955 -1.7523959 1.0762551
