11

N 0.40833665 -1.53358080 -2.26414399
C 1.07878914 0.08708054 -0.42284107
C -0.52664317 0.92889443 1.51074764
C -0.02912005 0.22209450 0.31592889
C 0.27997570 -0.82512770 -1.24692005
O -0.86429815 -0.63467604 -0.41378721
H 2.08791323 0.46573322 -0.43066728
H -1.37530479 1.56688132 1.24155100
H 0.26601733 1.54386432 1.94048718
H -0.45545702 -2.02644785 -2.48772500
H -0.87020939 0.20528428 2.25737003
