11

N 1.0802373 -0.8878328 2.1346946
C 0.6364236 -0.78419054 0.9295555
C -0.038234457 0.6720599 0.7987173
C -0.46168756 0.775293 -0.40639573
C -0.668781 0.31108633 -1.6709332
O 0.609473 -1.4926289 -0.09500806
H -0.065309115 1.3380423 1.6488096
H -1.0741615 1.5767716 -1.1863629
H 0.043728244 0.5352249 -2.4624784
H -1.5800712 -0.23228346 -1.9087377
H 1.5183829 -1.8115425 2.2181394
