11

C -0.11866204 -1.4398 1.7599001
C 0.6219656 1.2577738 -1.1560395
C 0.2002154 0.24418351 -0.1593527
O -2.3519807 -2.076826 0.9244266
C -1.344569 -1.485426 0.92083573
N 0.91703427 -0.8467047 1.7455124
H 1.5013928 0.9312885 -1.7174516
H -0.39560345 0.5746066 0.66304874
H 0.3470414 -0.78438723 -0.40348744
H 0.8178514 2.230619 -0.6967202
H -0.19468564 1.3946731 -1.8806725
