11

O 1.7504725 -0.9171221 -1.8380389
C 0.7296429 -0.26578903 -1.9183238
N -0.032294318 0.0834295 -0.8554783
C 0.34106934 -0.32299665 0.49095345
C -0.57775295 0.25246802 1.4715002
C -1.342344 0.72450787 2.2690394
H 0.3227324 0.10565732 -2.8780499
H -0.8780948 0.6162953 -0.9937425
H 0.33043337 -1.417752 0.56805986
H 1.3679117 0.0025378691 0.6945098
H -2.0117762 1.1387638 2.9895704
