11

O -0.1643111 1.3010199 -0.5201369
C -0.1070917 0.97409993 0.8456126
N 0.30508375 -0.84013236 -0.99948776
C -0.09835938 1.4540433 1.9599355
C 0.39271376 0.42202592 -1.3435866
C -0.43459368 -1.1840707 0.10911282
H 0.93469554 -1.5001675 -1.4418883
H -0.238653 -2.1834092 0.48384202
H -1.4713597 -0.8668131 0.07960075
H 0.9700401 0.7807473 -2.1842666
H -0.0881646 1.6426566 3.0112622
