11

O 1.752038 -0.9193084 -1.8274568
C 0.7311504 -0.2692407 -1.9168825
N -0.03321701 0.08309592 -0.8550884
C 0.34007713 -0.3230131 0.48861387
C -0.5800905 0.25206688 1.4699082
C -1.3456614 0.72726625 2.2663145
H 0.32461783 0.10100658 -2.877391
H -0.87616307 0.6210981 -0.9927032
H 0.33577332 -1.4175335 0.56290215
H 1.3662016 0.0015685925 0.69554824
H -2.0147266 1.1429933 2.986235
