10

O 2.32254306 -0.10760601 -0.96425587
C 1.37320575 -0.78516035 -0.67221015
N 0.11968217 0.47164694 1.35714821
C -0.86851816 0.62530934 0.57865299
C -0.86962662 -0.04164271 -0.75823895
N 0.10908625 -0.65357290 -1.27536933
H -0.02855218 0.96006462 2.24236887
H -1.76863108 1.20359427 0.81950274
H -1.80704317 -0.00518203 -1.32079720
H 1.41785424 -1.66745145 -0.00680117
