10

O 2.3635783 -0.39833322 0.27498335
C 1.1730406 -0.19680046 0.13506688
N 0.33182517 0.572831 0.92226475
C -0.97285306 0.55235773 0.43669862
C -0.97589254 -0.22307386 -0.6619554
N 0.32531303 -0.6806872 -0.84922945
H 0.66101235 1.0589252 1.7372334
H -1.7747397 1.0891734 0.9175274
H -1.7813338 -0.49115598 -1.3286533
H 0.6500499 -1.2832369 -1.5839361
