12

O -1.2616209 -0.6589176 1.2336487
C 0.12853852 -0.4866135 1.1826497
C 0.5836588 0.7034516 0.34212542
O 0.857679 0.40026 -1.045158
C -0.14910187 0.027207699 -1.8244439
O -1.2903619 -0.18598075 -1.4866945
H -1.577002 -0.6351085 0.3152056
H 0.66013366 -1.386206 0.83338237
H 0.4513474 -0.29663754 2.2133589
H 1.5484295 1.0737062 0.6951254
H -0.1628727 1.5011781 0.3992357
H 0.2111723 -0.05633982 -2.8584352
