11

O -0.34223703 0.78076690 -2.25621578
C 0.95809795 0.03872745 0.86677881
N 1.03927384 0.59747701 -0.41879824
C -0.23133068 -0.53126664 1.06952151
C -0.13007298 0.40676370 -1.12507418
C -1.05609083 -0.35968173 -0.17715337
H 1.80796423 0.11343222 1.53284438
H 1.83726598 1.07821098 -0.80045771
H -0.55587394 -1.03277693 1.96901999
H -1.97521963 0.21506179 -0.01954123
H -1.35177698 -1.30671479 -0.64092415
