11

O 1.2568618 -0.65964717 -2.1061547
C 0.62597346 -0.34797448 -1.116746
N 1.1411395 0.033488497 0.10042025
C 0.1283087 0.33845213 1.0823075
C -1.1386582 0.09425803 0.30578128
C -0.8613108 -0.2921711 -0.93704385
H 2.1340117 0.08380516 0.26002684
H 0.18956259 1.3769803 1.4331758
H 0.1919084 -0.31384373 1.9625385
H -2.1193948 0.22936326 0.7485539
H -1.5484024 -0.54271096 -1.7328595
