11

O -2.2047837 0.87225986 -0.44195518
C -1.0814584 0.47225612 -0.23577426
N 0.08239036 1.1587852 -0.5127276
C 1.2156237 0.41169867 -0.1533631
C 0.86963016 -0.768967 0.3634109
C -0.6321738 -0.8607936 0.3680662
H 1.5432823 -1.534264 0.7190114
H -1.0227387 -1.6863365 -0.23635355
H 0.09140728 2.0779884 -0.9232696
H -1.0618612 -0.9720753 1.3695424
H 2.200682 0.8294483 -0.3165876
