11

N 1.318241 -1.5012132 1.443363
C -1.3337293 0.65852076 -0.4887411
C 0.9251052 -0.49515432 -0.04670675
C 0.32065234 -1.8540202 0.874156
C -0.045238905 0.6298571 0.19087897
O -0.2513026 1.4710517 -0.9312638
H 0.07026896 1.1450968 1.1448666
H 1.9549528 -0.14568473 0.040226698
H -1.5977184 -0.15971951 -1.156735
H 0.80471915 -0.9429902 -1.0325769
H -2.1659505 1.1942558 -0.037467644
