9

O -0.1351966 -2.3088765 0.21942775
C -0.29280972 1.2739491 -0.18355246
N -0.90306365 -0.09102976 0.24114256
C 0.9601166 0.84592587 -0.41306323
C 0.049261514 -1.1372213 0.07112762
O 1.1807945 -0.53050965 -0.32352814
H -1.8855703 -0.28969347 0.09625853
H -0.8152703 0.828509 0.97551507
H 1.841738 1.408947 -0.6833276
