11

N 0.32511753 2.9291875 0.452707
C -0.20898071 1.9110138 0.35246775
C -0.85527766 0.6008283 0.20412607
C 0.009497187 -0.3563718 -0.5967073
C 0.91700935 -1.2916983 0.06630911
O -0.3295238 -1.7220178 -0.46999186
H -1.8240092 0.7357459 -0.28912616
H -1.0498073 0.17584626 1.1947623
H 0.23699127 -0.03458484 -1.6130315
H 1.8010572 -1.653169 -0.4554829
H 0.9779262 -1.2947801 1.1539673
