9

O -0.61895776 -1.2026571 -1.7210999
C 0.66774476 0.8924118 0.66175866
N 0.6695384 0.4393949 -0.7009106
N -0.8723703 -0.6786409 0.57927394
C -0.22696316 -0.45959166 -0.6943968
N -0.34877938 0.11786933 1.3869808
H 1.6324176 0.73528033 1.1542614
H 0.41581774 1.9545227 0.7473455
H -1.3184476 -1.7985896 -1.4132128
