9

O 1.5856059 -0.2809067 -1.535904
C 0.6219138 -0.14980227 -0.61192524
N 0.3516484 0.993315 -0.017412627
N -0.6693027 0.625437 0.8015446
C -0.93855906 -0.67859626 0.6515457
N -0.13373873 -1.2131679 -0.24507442
H 1.9945577 0.58784634 -1.6506201
H -1.097038 1.3080436 1.4055818
H -1.7150873 -1.1921688 1.2022644
