11

N 1.15501426 -1.18078597 0.73716778
C 0.09987518 -0.22473372 1.03985481
C -0.30090804 0.28301424 -0.32505070
N -1.28309985 1.17985421 -0.54367572
C 1.23920571 -1.14959821 -0.54232652
N 0.39712971 -0.28921133 -1.25976013
H 0.47353410 0.57200543 1.69282419
H -1.62552963 1.74809097 0.21260738
H -1.37135565 1.55222186 -1.47733873
H 1.94447222 -1.76812521 -1.09011022
H -0.72833798 -0.72273223 1.55580783
