9

N 1.0095785 -0.37117714 -0.65577894
C -1.1985 0.47856212 -0.11199852
C -0.3029179 0.46497083 0.97915304
C -0.30169377 -0.15157227 -1.1083602
N 0.91965175 0.009306077 0.5791198
H -0.4302582 0.8023473 2.0007071
H -0.9902195 -0.97247833 -0.65899605
H -0.45154637 -0.16170602 -2.1849244
H 1.7459055 -0.09825271 1.1610781
