9

N -0.89265556 -0.06430945 0.61749112
C 0.42128304 -0.12524741 -1.24603755
C 1.12629886 0.20661891 0.02048862
C -0.86211281 -0.28087103 -0.77624283
N 0.19709696 0.22074007 1.17297667
H -1.80245469 -0.52555901 -1.25560435
H 1.60642390 1.19338086 -0.00568583
H 1.92504774 -0.50797232 0.26395974
H -1.71892727 -0.11678053 1.20865434
