11

O 0.55667629 0.95031843 -0.46501371
C -0.63885607 -0.97059817 -0.02518239
N -0.40900571 -0.12154530 -2.30889025
C -0.17455198 -0.03456165 -1.06998847
C 0.60267852 0.71519846 0.94520547
C -0.19114436 -0.54339896 1.15104788
H 0.17151750 1.57885832 1.46315100
H 0.02137760 0.65098069 -2.81701741
H -1.24156026 -1.83989154 -0.24996868
H 1.64930639 0.61023561 1.25428886
H -0.34643800 -0.99559560 2.12236781
