11

O -1.4792964 1.6242526 1.2707535
C -0.75434077 0.8396393 0.69402635
N -0.757487 0.55971426 -0.65304905
C 0.22584994 -0.42593557 -1.0355122
C 0.8750247 -0.7434756 0.2882048
C 0.3216178 -0.026794456 1.2639351
H -1.3967035 1.0104609 -1.2866819
H 0.95373356 -0.02817941 -1.7545947
H -0.2330548 -1.3167286 -1.483205
H 1.6793634 -1.4665339 0.3769992
H 0.565293 -0.026419254 2.319124
