12

N 0.8363188 -0.21394572 -1.7489579
C 1.2576382 0.6222595 -0.77360797
C -0.19977582 -1.1084256 -1.511071
N -1.4539052 0.0024226778 1.5745969
C 0.49390492 0.7604731 0.3571864
N -0.87229764 -1.09666 -0.36061952
C -0.6030225 -0.104857564 0.5152822
H 0.8684562 -1.2550976 -2.3110354
H -1.1436507 0.47489762 2.4066415
H 2.1580143 1.2004217 -0.96252096
H -2.075878 -0.78002286 1.6999224
H 0.73419696 1.4985347 1.1141831
