11

O 0.6507477 2.14551 -0.51421547
C 1.0069743 1.0565904 -0.8896015
C 0.2225632 -0.20205653 -0.6092332
C 1.0223409 -1.2271922 0.22036622
N -0.96980184 0.053079717 0.16807587
C -0.85062075 -0.69260466 1.2579437
N 0.2341844 -1.461517 1.3223261
H -0.017187012 -0.7007956 -1.5594614
H -1.6268139 0.8041879 0.03147304
H -1.609014 -0.6763703 2.0364792
H 1.9366269 0.9011686 -1.4641523
