11

O 1.08634166 1.56786442 -1.28559953
C 0.60689450 -1.44852736 0.36495277
C -0.05440435 -0.39665387 -0.54884627
C 0.95092265 0.37287552 -1.37057700
N 0.17362501 -1.12167501 1.62822608
C -0.58211761 -0.02764581 1.56398657
N -0.80100206 0.45621358 0.34906645
H 1.55639192 -0.24630343 -2.05507894
H -1.20107125 1.35444873 0.13087626
H -1.01283407 0.44405609 2.44348759
H -0.72274628 -0.95465286 -1.22049398
