10

O 0.6895256 1.2182417 1.6103945
C -0.47284502 1.0093522 -0.52349824
C -0.80189013 0.040736817 -1.4113508
N 0.46681997 -0.8206788 0.56768185
C 0.260292 0.45669302 0.6044878
N -0.17806694 -1.161436 -0.68348527
H 1.148626 0.65405816 2.2498057
H -0.9074017 -1.8534557 -0.5055413
H -0.7077721 2.0631473 -0.6080778
H 0.50271225 -1.6066589 -1.3004162
