11

C 0.33734864 1.2339123 -0.99238884
N 0.39271608 -0.89872813 1.7337681
C -0.793704 -1.4435004 1.1861267
C -0.9051707 -0.7324397 -0.008153754
N 0.96351486 0.010685354 0.9509955
N 0.122966655 0.14556919 -0.0482367
H 1.4106468 1.3799863 -1.1070845
H 0.35564083 -2.0536098 1.6350431
H -0.124957494 2.1439998 -0.60617656
H -1.6431364 -0.74616075 -0.7980931
H -0.11586534 0.9602857 -1.9458002
