11

O -1.1194396 1.2526559 -0.48683864
C -0.61412984 0.7309599 0.7183697
C 0.46215218 -0.29954186 0.45472082
C 0.426237 -1.1354413 -0.74049044
O 1.2813125 0.009424119 -0.67009693
H -0.34427968 1.4261029 -1.0406486
H -0.19529304 1.5246531 1.357812
H -1.4488932 0.2719259 1.2577342
H 1.0128254 -0.65415215 1.3261603
H -0.4074501 -1.0340215 -1.4306769
H 0.94695896 -2.0925648 -0.7460457
