11

O 0.9372281 -0.6277006 1.3619732
C 1.3006606 -0.1277406 -0.25887424
C -1.3440121 -0.03184427 -0.3538111
C -0.0026398657 0.45813012 -0.7009127
O -0.77031696 1.0946023 0.32760867
H -1.4409553 -0.93566066 0.25003368
H 0.0930556 1.0486444 -1.6145126
H 0.21210004 0.011632934 1.5589712
H 1.4669884 -1.0992292 -0.7384917
H -2.20401 0.21229146 -0.97506034
H 1.7519019 -0.0031259027 1.1430758
