11

N -1.6542628 1.0751512 -0.21572272
C 1.5938251 -0.8600913 -0.15643574
O 1.2331471 -0.5511656 1.0710838
C -0.45346504 0.42470342 -0.25724536
C -0.1305765 -0.5414965 0.73550415
O 0.36285013 0.64097273 -1.1862631
H 2.4548228 -0.33397216 -0.55588907
H 1.2984335 -1.8052105 -0.6011631
H -1.7904147 1.779816 -0.9247299
H -2.1171072 1.2118701 0.66557705
H -0.7972518 -1.0405774 1.425284
