11

O 2.1869676 -1.3385497 -0.14829579
C -0.82200176 0.41095278 0.41876304
C 1.177102 -0.67594385 -0.24746133
C 0.21170957 -0.40236276 0.9920682
C -0.52204597 0.6004869 -0.99062306
N 0.6899652 -0.06886466 -1.3346779
H -0.47178838 1.6745019 -1.2421045
H -1.6923012 0.82006675 0.92407453
H -0.15360405 -1.3458198 1.4259604
H -1.3603197 0.22940111 -1.6063037
H 0.7563163 0.09613143 1.8086004
