10

O -2.0584288 0.83705074 0.7132048
C 2.3220088 -0.7871182 -0.44869027
C -0.8002922 0.9303813 0.48414683
O -1.1565821 -1.1852428 -0.25032344
C 1.1481701 -0.5792796 -0.2756721
C -0.23156333 -0.31649524 -0.020637652
H 3.3615656 -0.9760636 -0.60658646
H -0.12553787 1.644856 0.97879064
H -0.49595147 1.0748913 -0.7200613
H -1.9633889 -0.64297986 0.14582899
