10

N 0.6035147 -0.80884624 1.5061793
C 0.0142598655 0.17017819 0.74338675
O -0.4013119 1.2171365 1.1889967
N -0.09869661 -0.1757008 -0.6062555
C -0.6377502 0.6713756 -1.5605602
O -0.7677406 0.34795868 -2.7146904
H 0.8306373 -0.5144977 2.4437125
H 1.250977 -1.4529399 1.0788957
H 0.13062617 -1.1040715 -0.9310878
H -0.9245156 1.649407 -1.1485766
