11

C 0.024916358 -0.82255393 -1.1457144
C 0.19231805 0.5193318 -0.59550524
C 0.53962296 1.3566953 1.8754549
C 0.52282006 0.8137403 0.61891353
O 0.9392207 -1.6249436 -1.2099259
N -1.252242 -1.0864238 -1.5950849
H 1.1012689 0.013272053 1.2323639
H -1.342958 -1.929252 -2.142929
H 1.4857318 1.472547 2.398537
H -0.37578893 1.592604 2.4129038
H -1.8349097 -0.30501726 -1.8490137
