11

C -1.31029166 0.65345689 1.76320630
C -0.29599448 -0.01704156 1.18631233
C -0.54644734 -0.43199612 -0.15553140
C 0.64266185 -0.71455495 -0.92767486
O 1.17102969 -1.77400134 -0.61881449
N 1.04577782 0.08929651 -1.95002711
H 0.68279627 -0.11865299 1.66178745
H -1.20839605 1.17142607 2.71265034
H 1.69898828 -0.32491748 -2.60102135
H -2.26646094 0.70958771 1.24643804
H 0.38633644 0.75739747 -2.31732470
