10

C 0.34480944 1.2364109 0.49627122
N 0.51284736 -0.4187596 -1.1847736
N -1.6627139 -0.36331818 0.39925858
C 0.045322914 -1.5334655 -0.66808164
N -1.021795 -1.3041457 0.21740179
N 0.21188375 0.76057154 -0.8996888
H 0.3794903 -2.53248 -0.88835764
H 1.1416446 1.9865195 0.4718977
H -0.5707026 1.72178 0.84229
H 0.61921316 0.44688645 1.2137824
