10

C -1.0387543 -1.0286696 0.1964362
N 1.1548554 -0.06702338 -0.4332435
N -0.2419836 1.2232945 0.6772658
C 1.7487729 1.17021 -0.23548062
N -0.08164608 0.056519452 0.0981922
N 0.7998529 1.9442703 0.433408
H 1.4780364 0.5560327 -1.3977642
H -0.63069654 -1.8210349 0.82689524
H -1.2432214 -1.4160942 -0.803689
H -1.9452156 -0.61750454 0.63797987
