10

C 0.2568149 -0.625588 -1.4342939
N 0.114986576 -0.067989014 -0.10662727
N -1.0235176 0.41211095 0.36174828
C -0.6611957 0.7860526 1.5774659
N 0.6382381 0.54052866 1.8285675
N 1.1156442 -0.003823456 0.7447497
H -0.38566396 -1.5008541 -1.5338446
H 1.302155 -0.90642774 -1.5531288
H -0.021972727 0.12596308 -2.1742153
H -1.3354892 1.2400268 2.2895784
