9

O 2.5039861 -0.30723903 -0.051237665
C 1.4272051 0.2191587 -0.13250245
C 0.2099957 -0.23494996 0.6642662
C -1.025724 -0.093577236 -0.105174355
C -2.0109227 0.040220935 -0.77733886
H 1.2517638 1.0961577 -0.78726107
H 0.16153917 0.39341998 1.5633507
H 0.37322333 -1.264893 0.9961112
H -2.8910666 0.151702 -1.3702136
