9

O -0.9320229 -0.5472164 1.565524
C 0.21605943 -0.8797368 -0.83476853
C 0.7056311 1.2010005 0.4381032
C 0.8841164 0.21192472 -0.3200234
C -0.7571681 0.059149534 0.54290545
H -0.1431869 -0.83716327 -1.8591782
H -1.4383423 0.60384554 -0.10836563
H 0.40350366 -1.8621465 -0.41050532
H 1.0614097 2.0503426 0.9863084
