10

C -1.2205232 -0.38100353 -0.34982395
C -0.09049247 -0.8109841 -1.0450366
N 1.1358991 -0.43221423 -0.6986663
C 1.2202139 0.3805905 0.34991065
C 0.090955816 0.81152666 1.0453651
N -1.1365128 0.4319664 0.6992838
H -2.2153535 -0.7015175 -0.64872026
H -0.18093285 -1.4763535 -1.8998766
H 2.2151332 0.7009141 0.64698374
H 0.18161285 1.477075 1.9005803
