10

C -2.34819428 0.11247981 0.01117549
C 1.04697011 -0.58786938 -1.17088347
N 1.20070098 -1.35806735 -0.18895527
C 1.14566019 0.14840257 0.06686175
C -0.04217760 0.70815890 0.75577044
N -1.22298278 0.34831465 0.44510163
H -2.84899560 -0.77091259 0.42174421
H 0.89695545 -0.64552866 -2.24057214
H 2.08787895 0.61142935 0.34752153
H 0.08418462 1.43359251 1.55223571
