9

N -2.2790663 -1.1566333 0.7275279
C -1.4969509 -0.55523586 0.12913525
O 0.7657349 -0.39629233 -0.665267
C 1.4552544 -0.44069734 0.48141915
O 0.9334182 0.09940228 1.5132511
C -0.51120526 0.1763383 -0.6421338
N -0.8370998 1.1783602 -1.3250673
H -0.027621869 1.5592506 -1.8144724
H 1.9975364 -0.46449268 1.5956075
