10

O -1.15879 -0.8923377 1.0087239
C -0.36872336 1.0337796 0.1343656
C 0.89879966 0.52837026 -0.29535615
C -0.45938578 -1.3907574 0.10631724
N 0.30525738 -0.75153196 -0.76090556
H 1.6420388 0.40463418 0.4995702
H 1.3243879 1.0141561 -1.1746035
H -0.6169113 1.2366152 1.1663764
H -1.0940058 1.2976793 -0.62883407
H -0.4726675 -2.4806075 -0.055654075
