10

O 0.33056617 -0.85497811 1.01673204
C 1.17402419 -0.85235124 -0.03923972
C -0.28318920 0.63392571 -0.69828277
C -0.70010313 0.10381689 0.69188275
N 0.94946018 -0.09356628 -1.02667339
H 2.01324560 -1.53579752 0.05585831
H -1.03730773 0.44105058 -1.46781899
H -1.65908049 -0.42043559 0.69336487
H -0.70554987 0.86864464 1.47230587
H -0.08206581 1.70969098 -0.69812911
