12

C -0.68087095 0.22988017 0.79934305
N 0.053350326 -0.4129403 -0.32578436
C 0.7541584 0.3781044 -1.1715795
N -0.20320494 1.4638307 1.075196
C -0.023282824 -1.7307607 -0.3493475
O -1.5820131 -0.3499182 1.3487372
H 0.7133507 1.7365236 0.7595265
H 0.42045936 -2.2563524 -1.1846788
H -0.5241093 -2.2407646 0.46165097
H 0.38706148 1.3841594 -1.3249042
H 1.2864519 -0.12948462 -1.9637471
H -0.60135114 1.9277223 1.8755877
