11

C -1.27181327 1.17567453 -0.33292386
O -1.18906532 -0.16766826 0.12413713
C 1.27383618 -1.18243160 -0.37474683
C 0.92947994 -0.70166546 0.81401873
O -0.26806006 -0.16668474 1.20032993
H 0.58042083 -1.22435929 -1.20553836
H -1.63190476 1.83885944 0.46281229
H -1.99414369 1.14351238 -1.15346207
H 2.27924000 -1.56714075 -0.50701280
H 1.59121723 -0.67078674 1.67561015
H -0.29920741 1.52269039 -0.70322442
