10

N 0.9528424 0.76784104 0.658995
C -0.19923355 0.5561781 -0.07460185
C -0.5631972 -0.8337585 -0.16618776
O 0.6376508 -1.460082 0.34802848
C 1.3794069 -0.4533452 0.7923393
N -0.90783566 1.1945616 -0.96827304
H 2.3379915 -0.7204281 1.2255944
H -1.1918279 -0.08321507 -1.282861
H -1.40825 -1.1684916 0.43653798
H -1.0375473 2.2007399 -0.96957135
