10

N -0.52561260 -1.54569524 1.19815776
C -0.09866042 -0.63962328 0.43069663
C -0.86396494 0.62704405 0.08878906
O 0.03620616 1.32375997 -0.79258778
C 1.10868291 0.52593816 -0.89944469
N 1.14150713 -0.58532641 -0.26528340
H -1.05900963 1.25262282 0.96290179
H 0.16239308 -2.29343151 1.26686343
H -1.79496897 0.42756916 -0.44396902
H 1.89342713 0.90714208 -1.54612409
