11

N 0.45932266 0.33906853 -2.925835
C 0.358729 0.6316664 -1.8138844
C 0.20983747 0.9667272 -0.3918607
C -0.5978431 -0.08520765 0.3450012
C 0.058295526 -1.1823512 1.0527965
O -0.47342354 -0.063000076 1.7504886
H -0.27752995 1.9452856 -0.30689183
H 1.2003142 1.0535889 0.06714922
H -1.6138992 -0.23422995 -0.021839969
H -0.46928492 -2.122929 1.2015854
H 1.1454818 -1.2486187 1.0432904
