17

C -2.4812758 -0.92701435 0.59748435
N -1.3220165 -0.4275094 -0.11748902
C -0.2640994 0.06925553 0.62441146
O -0.35127956 0.21813035 1.8359998
N 0.85671407 0.42484838 -0.09343126
C 2.0687318 0.7632705 0.6246812
C 0.93397915 0.34717774 -1.5382789
H -2.264373 -1.8330123 1.1787223
H -2.834423 -0.16318156 1.295152
H -3.2767394 -1.1414242 -0.119286686
H -1.0926975 -0.9289439 -0.96309805
H 2.855075 0.013751036 0.4591911
H 1.8345729 0.8058239 1.688803
H 2.4517868 1.7382369 0.3011747
H -0.020448266 0.6413897 -1.9864639
H 1.6947987 1.0520017 -1.8873168
H 1.211694 -0.6528 -1.900255
