17

C 0.14124225 0.0952522 0.023951942
N -0.23851082 -1.2219763 -0.12704718
C 0.75404173 -2.1804755 -0.5697986
O -0.84831613 0.9808061 0.3018438
N 1.3555223 0.46250567 -0.053209454
C -2.1944928 0.5633867 0.43906298
C 1.6314236 1.8567667 0.20718782
H 1.6111816 -2.1343505 0.103594504
H -2.2997892 -0.19819559 1.2201527
H -2.6010602 0.18019548 -0.5058844
H 1.0978407 2.5271878 -0.47921613
H -1.1669496 -1.3892772 -0.47644842
H 1.1143546 -1.9826198 -1.5860869
H 0.31904596 -3.182551 -0.52732927
H -2.749076 1.4577179 0.72316164
H 1.3685557 2.1515164 1.2324282
H 2.7049863 2.0141103 0.07363657
