10

N -0.15848142 -0.7527217 -0.8426535
C 1.0613403 -0.28824568 -0.4181931
C 0.8363383 0.5960088 0.60792434
C -0.5717677 0.66683304 0.80829066
C -1.1572324 -0.17662415 -0.10284473
H -0.29819575 -1.4141377 -1.5866843
H 1.9778645 -0.624618 -0.8808089
H 1.5920837 1.1376747 1.1596261
H -1.0868988 1.271111 1.5417786
H -2.1950505 -0.4152801 -0.2864352
