10

N 0.88996655 0.12596859 -0.99017507
C -0.5186511 0.47394776 0.8278573
C -0.025225151 -0.8648927 -0.9102312
C -0.92124724 -0.6721374 0.14412062
C 0.61101323 0.96244365 0.15207177
H -0.97536194 0.91361123 1.7048708
H 1.5933936 0.13639672 0.06625594
H -1.7540677 -1.3166816 0.39824936
H 0.023475733 -1.6978271 -1.5997539
H 1.0767039 1.9391711 0.20673457
