11

C -0.104579106 -1.3788512 0.85108835
C 0.29390407 1.1317494 -1.553057
N 0.115795836 -0.81192064 -0.39768726
C -0.020884024 0.48950627 -0.2937132
C -0.4362283 -0.35373613 1.6642681
O -0.38737836 0.8269905 0.95553476
H 0.36348063 -0.59779996 -1.5587679
H 1.3354114 1.4732363 -1.5534075
H -0.3723601 1.9386388 -1.8577458
H -0.05355288 -2.438014 1.0451769
H -0.73360914 -0.2797994 2.698311
