11

C 1.3813114 0.0070759193 0.022298612
N 0.23908232 -0.6238103 -0.628771
C -0.99852645 -0.50236183 0.11163496
C -1.4271739 0.9012018 0.3352896
N -1.7087295 2.0133514 0.46517438
H 1.2463104 1.0824094 0.2096615
H 2.265467 -0.13223247 -0.6052019
H 1.5677085 -0.4884025 0.9819968
H 0.11656887 -0.2425556 -1.5606663
H -1.7975343 -1.0271406 -0.4201799
H -0.88448375 -0.98753476 1.0887634
