11

C 0.45375803 1.0901763 -0.4176416
N 0.6256213 -0.29236582 -0.68745244
C -0.3939197 -1.112064 -0.27151558
C -0.10207291 1.2532381 1.0704125
N -0.6713493 0.25154692 1.4873261
H 1.3729671 1.6544049 -0.58700985
H -1.3658557 -0.90634495 -0.715783
H -0.9746817 -0.65388954 1.759089
H 1.5392972 -0.63230926 -0.4154776
H -0.135339 -2.1685088 -0.19239992
H -0.34842527 1.5161161 -1.0295477
