11

O -0.18926513 -2.2620215 1.6161193
C -0.66791284 -1.1781043 1.3952796
C 1.0567018 0.6467469 -1.1647351
C -0.683057 0.9914876 -0.020758996
N 1.01363 -0.44638532 -0.26561788
C -0.13386771 -0.21893899 0.41049764
N 0.046208017 1.5236337 -1.0072396
H 0.75106335 -0.5681867 -1.5101315
H -1.5891178 1.4702839 0.3383245
H 1.9679551 0.85681975 -1.7198911
H -1.5723379 -0.81533504 1.9281533
