11

O 1.80412244 1.57766223 -1.05350394
C -0.61807942 -1.10498948 -0.41314559
C 0.20985534 -0.00549389 -0.39015570
C 1.17032877 0.57557257 -1.31319678
N -0.01420154 0.58766422 0.83261112
C -0.93716677 -0.15902117 1.47167787
N -1.32552566 -1.19110789 0.74943476
H 1.29160487 0.04306092 -2.27660765
H 0.45918856 1.42588074 1.13481565
H -1.30124164 0.08302225 2.46226595
H -0.73888484 -1.83225063 -1.20419622
