11

O -0.50783867 1.3801259 0.037683226
C -0.20630617 -1.0608157 -0.017020348
C 0.49421486 1.3054733 0.7535977
O -0.8564415 -1.5717564 0.89691746
C -0.85543454 0.14189866 -0.7516031
N 1.0333302 -1.2316011 -0.4825754
H -1.9429253 0.14083683 -0.7170177
H 1.417945 -2.0366418 0.0200708
H 1.1799643 0.42055255 0.6417955
H 0.7019993 2.1841347 1.3668296
H -0.45850766 0.3277927 -1.7486777
