11

O 1.6811773 0.66487795 -0.5125496
C 0.7596244 -0.04892346 0.25082245
C -0.33797386 0.6911562 1.0421079
O -1.3523073 -0.14510092 0.41578192
C -0.42359054 -0.6849138 -0.44129544
N -0.55739826 -1.3764383 -1.4784726
H 1.2657621 0.9000254 -1.3518832
H 1.3150201 -0.7564651 0.873258
H -0.3472734 0.5759752 2.127584
H -0.46308294 1.7380975 0.75234735
H -1.5399574 -1.5582907 -1.6777011
