10

N 0.77989707 0.43041421 3.28340073
C 0.46837969 -0.04363456 2.27700337
C 0.15075539 -0.62419073 1.03590268
N -0.97357486 1.21539808 -0.79143976
C -0.19243380 0.34571176 -1.27992967
C 0.37059246 -0.71369476 -0.39160771
N -0.62036163 -1.45555204 0.48831429
H -1.29415913 1.86022376 -1.51396255
H 0.11558614 0.29503968 -2.33090611
H 1.19531867 -1.30971553 -0.77677587
