9

N -0.86825691 0.10494102 -0.92423373
C 0.70736612 -0.11402148 0.76278308
C -0.21611921 1.17382480 -0.66373772
N 0.76868325 1.10542307 0.36409382
C -0.32932224 -0.88025837 -0.00229183
H -1.12287201 -1.27829060 0.64115419
H 1.34383066 -0.49720842 1.55428731
H -0.37610666 2.11517837 -1.17955102
H 0.09279705 -1.72958859 -0.55250422
