9

N -0.11816858 -0.84810734 0.45137608
C 0.36016232 0.37693456 0.8582287
C 0.2750782 1.1778077 -0.24625926
N -0.23907346 0.48135135 -1.3113388
C -0.46401685 -0.72732896 -0.8605388
H -0.19952503 -1.676219 1.0162958
H 0.703651 0.5489981 1.8677052
H 0.55414975 2.2184098 -0.34478864
H -0.8722573 -1.5518464 -1.4306804
