11

O -0.32391042 0.38716736 1.8756418
C -0.39117715 1.0132389 -0.4945233
C 0.34757334 0.3903343 0.66773444
O 0.52270377 -0.29665074 -1.4650255
C 0.529361 -0.8941832 -0.19052365
N -1.3212031 1.2604015 -1.2041094
H -1.1599094 -0.083611585 1.7631813
H 1.3076745 0.88679427 0.8188598
H -0.30595222 -1.5946141 -0.0224003
H 1.4795618 -1.3987911 0.021303592
H -0.68472236 0.32991454 -1.770139
