11

O -1.37372646 -0.53669562 -1.18816573
C -0.97646506 0.16832823 -0.04224623
C 0.35094387 -0.34700311 0.53373564
O 0.74129119 0.31750825 1.70815167
C 1.38684801 -0.25162004 -0.52323710
N 2.15129598 -0.11330468 -1.38018572
H -1.74798373 0.01703419 0.71510386
H -0.88668925 1.25255850 -0.22659250
H 0.86003526 1.25394173 1.50208022
H 0.23730913 -1.40084683 0.79816935
H -0.74285901 -0.35990079 -1.89681365
