10

O -1.1153888 -0.450029 -1.567293
C -0.6783878 0.06851549 -0.3867214
N 1.6655337 0.78457373 0.38128006
C 1.1849574 0.122872844 1.3296727
C 0.688448 -0.3361865 0.055566844
N -1.377607 0.83836174 0.33116543
H 1.1902775 0.07679345 2.4078655
H 1.1117027 -1.224355 -0.41600662
H -2.2709243 1.0380656 -0.11860027
H -0.3986114 -0.9186123 -2.016929
