10

O -2.0833151 -0.97291213 -1.579064
C -0.43614352 -0.25922042 -0.028517839
C 0.7088368 0.049797427 -0.88469076
N -0.22369176 -0.1030006 1.2505734
O 1.013101 0.39347854 1.4161013
C -1.7675442 -0.79306406 -0.4345875
C 1.5533813 0.5461427 0.13269348
H -2.44314 -1.0089567 0.41674638
H 1.0502023 1.4495509 -0.42890844
H 2.6283133 0.69818425 0.13965403
