12

O 0.36940722 0.33804899 1.12028832
C -0.15184503 -0.91020632 0.70730487
C 0.81277010 1.18174427 0.06052028
O 1.45719760 0.50948035 -0.96427912
C -1.33595930 -0.71251894 -0.22654816
O -1.18970696 -0.42907556 -1.39903952
H -2.35153388 -0.78621606 0.20720665
H 0.60849949 -1.50974197 0.18853639
H -0.46645559 -1.41760066 1.62415893
H 1.53064651 1.85575053 0.53261609
H -0.05090917 1.75148006 -0.31878652
H 0.76788857 0.12885529 -1.53197863
