12

O -1.2614737 -0.6622053 1.2352698
C 0.12736492 -0.48476827 1.1839392
C 0.5853491 0.7038993 0.34525695
O 0.85507196 0.40038687 -1.0447541
C -0.15072577 0.026201094 -1.8258399
O -1.2905878 -0.18702114 -1.4905376
H -1.5813723 -0.6329643 0.31815967
H 0.66032195 -1.3832092 0.83058256
H 0.45393842 -0.29838523 2.2131073
H 1.5521657 1.0734081 0.6943777
H -0.15848291 1.5041131 0.3992315
H 0.20842999 -0.059455074 -2.8587935
