9

C 1.26233995 0.58869630 -1.31317026
C 0.29516514 0.04507506 -0.63778427
C -0.68361852 -0.51305722 0.03850652
C -0.89216677 -0.25403797 1.48260870
O -0.20731657 0.47521250 2.16175416
H 1.12819302 1.54818457 -1.80647366
H -1.37685152 -1.19200299 -0.45403320
H 2.23084803 0.10162964 -1.38836268
H -1.75659281 -0.79969996 1.91695498
