9

C -0.5712226 -0.6915921 -1.1709789
C -0.08672728 -0.5164934 0.076203324
C 0.5592204 0.28682476 -1.2073746
C -0.7523187 -0.22700793 1.371686
O -1.6401607 -0.9047555 1.8187526
H -0.36392727 0.66954225 1.902268
H 1.5611043 -0.03472781 -1.4920311
H 0.31787315 1.3225673 -1.4372705
H 0.9761588 0.095642135 0.13874544
