9

C 0.77491933 0.12060922 -1.6530935
C 0.1514044 0.024414368 -0.3339161
C -0.3507539 -0.044000167 0.7585823
C -0.9723353 -0.15155472 2.0650706
O -0.6542725 0.5133985 3.0245347
H 0.8100704 1.1615404 -1.9854137
H 0.22044112 -0.46225643 -2.3940072
H 1.8016056 -0.25800398 -1.6138718
H -1.7810792 -0.90414727 2.132115
