10

N 0.72328734 -0.40990625 3.21305701
C 0.59345744 -0.18699429 2.09041449
C 0.43921014 0.08439751 0.68234855
N -0.62802226 -0.34151641 0.02536092
C -0.41651308 0.10462107 -1.35422353
C 0.91181082 0.83681738 -1.32297135
N 1.34512653 0.75852354 -0.02424147
H -1.21548232 0.77743592 -1.68012222
H -0.36410288 -0.74671877 -2.04080981
H -1.38877179 -0.87665982 0.41118726
