10

N 0.3455929 -1.5044978 -2.939378
C 0.08659141 0.7161553 1.1774236
C -0.23379073 -0.284033 -0.72510093
N 0.75789756 0.10645284 0.12025574
C -1.3284444 0.7401603 0.9003852
C 0.07504715 -0.96322685 -1.9575692
N -1.4320451 -0.006599765 -0.311794
H 0.62464267 1.3087602 1.9096657
H -0.638584 -0.04281143 1.81873
H 1.7430927 -0.0703597 0.007381733
