11

C 0.29767811 0.01253588 0.79865129
C 0.03241781 -0.68930862 -0.51606060
C 0.36011773 1.32944156 0.92449707
O 0.13623581 0.13748801 -1.64832482
C -1.34772706 -1.23008496 -0.49773091
N -2.41412370 -1.66736164 -0.44908577
H 1.01724916 0.53342590 -1.62349506
H 0.44286309 -0.64709930 1.65096753
H 0.55997704 1.79053712 1.88794904
H 0.21073530 1.98687635 0.07420773
H 0.70457665 -1.55645032 -0.60157577
