11

C 0.55540556 -0.37605223 -0.5826653
C 0.6717768 -1.527077 -1.4256964
C -0.70032245 0.027449744 0.05486678
O 1.6223811 0.28282362 -0.3039429
C -0.5032043 1.0914272 1.0172468
N 0.6928807 -2.464084 -2.0997157
H 0.20294164 0.9091009 1.8243765
H -0.88414735 -0.8419337 0.73668265
H -1.542677 0.065312184 -0.64421636
H 1.2348423 1.1078652 0.1606828
H -1.3498774 1.7251678 1.2623814
