11

C -0.4005745 -0.5830277 0.10353385
C -0.32247597 0.68963856 0.9186485
O 0.38017797 1.6910158 0.22427315
C 0.6707004 -0.9518704 -0.81433344
O -0.53754145 -0.35464147 -1.2952361
H 0.20785512 0.50065464 1.8570377
H 0.041714735 1.6706003 -0.681166
H 1.5487238 -0.31293225 -0.8847663
H -1.3455368 1.0128158 1.1674298
H -1.0484709 -1.3667586 0.4991381
H 0.8054275 -1.9954948 -1.094559
