11

C -0.66056540 1.29782071 0.01350762
C -0.13408442 -0.04945127 -0.21633801
C 1.12977306 -0.56003627 0.42525611
O 0.01198860 0.95135385 -1.19261858
C -1.77832145 -1.95539713 -0.81147029
N -1.05448986 -1.06440372 -0.55437318
H -1.72986767 1.47093816 -0.08758080
H 0.89543964 -1.11075792 1.34082977
H -0.11767147 1.97019183 0.67608607
H 1.65358798 -1.23092976 -0.26054167
H 1.78421141 0.28067122 0.66724283
