11

C -0.1997799 0.21721417 0.10375761
C -1.070483 -0.8549378 -0.39508474
C -0.4777973 1.9361984 0.101819485
O -1.1507754 -0.3574181 0.9353006
C 1.261091 0.023394283 0.4004201
N -0.65331537 1.5826337 -1.0268948
H 1.559872 0.6373242 1.2517726
H 1.4464264 -1.0307533 0.62562895
H -0.65728545 -1.8598639 -0.48736382
H -1.9089134 -0.60832053 -1.037984
H 1.8509609 0.31452888 -0.47137213
