11

O 0.77040813 -0.41517730 -2.01485217
C -0.84171348 0.10399474 -0.16015291
C 0.28290638 0.22292933 1.89141236
C -0.54632745 -0.14462410 -1.61144670
O 0.30536231 0.02755693 0.47085009
H -0.93452633 0.74625612 -2.13438790
H 0.92054498 1.07932815 2.12284840
H -0.74785469 0.40109028 2.20519361
H 0.68540441 -0.67931059 2.35747666
H -1.21947768 -0.97146887 -1.89722295
H 1.32527336 -0.37057464 -1.22971835
