11

O -1.1210563 1.250966 -0.48639202
C -0.61342824 0.73233026 0.71684146
C 0.46188885 -0.29958877 0.45352015
C 0.42505452 -1.1365547 -0.74001837
O 1.2830524 0.005711232 -0.6705725
H -0.3451704 1.4282044 -1.0391556
H -0.19292185 1.5269799 1.3539032
H -1.4451293 0.27282602 1.2609202
H 1.0111803 -0.6532154 1.3266792
H -0.41006914 -1.0351775 -1.4295679
H 0.9465991 -2.0924814 -0.7461577
