11

N 0.15959233 1.26913538 -0.41563572
C 0.09297286 0.50757485 0.85604366
C -0.21445633 -0.89496317 0.36330300
C -0.01189059 -0.78906123 -1.15887976
C 0.11102370 0.67960654 -1.58006754
O 0.04316371 -1.72518710 -1.91233852
H 1.05552077 0.58159668 1.37425014
H -1.25319341 -1.18225361 0.55421519
H -0.67968561 0.94168868 1.49539178
H 0.26393125 2.27820001 -0.36145622
H 0.43302148 -1.66633716 0.78517407
