11

N 1.346104 0.5683891 1.8378707
C 0.64217216 0.26646173 0.83366597
C -0.7678337 -0.17878748 0.8543538
C -1.1586736 -0.39797187 -0.39561003
C -0.012757505 -0.106193915 -1.3236651
O 1.0572141 0.29741246 -0.46919546
H 2.2855527 0.846273 1.5567467
H -1.3298573 -0.28627226 1.772986
H -2.1285794 -0.73034555 -0.7417651
H -0.23356335 0.70576906 -2.0265567
H 0.30022207 -0.9847344 -1.8988307
