9

C 0.17391561 0.64044625 -0.3350166
C -0.8545976 -1.6355875 0.6117435
C -0.29448205 -0.39249244 0.09362387
C 0.46930802 1.8834499 -0.9753047
O 1.6724609 2.277392 -0.5938199
H -1.6898713 -1.4254993 1.2873844
H -0.09953536 -2.2031596 1.1646452
H 1.8465344 3.1149378 -1.0457138
H -1.2237324 -2.2594872 -0.20754209
