11

N 0.32564214 2.9300997 0.44933295
C -0.20779246 1.9113736 0.3492781
C -0.8541044 0.6019476 0.20472471
C 0.00898696 -0.35564324 -0.596889
C 0.9148275 -1.2931697 0.06699797
O -0.33420753 -1.7206959 -0.4680503
H -1.8242959 0.7356288 -0.28628615
H -1.0464172 0.17686911 1.1950164
H 0.2421204 -0.035069596 -1.6115464
H 1.7977998 -1.656187 -0.45630524
H 0.9774407 -1.2951539 1.1537268
