11

N 1.27352553 0.11556777 0.33557926
C -0.03422119 0.28816406 1.01476603
C -0.98036136 -0.00966094 -0.12053941
C -0.14512637 -0.25170211 -1.31022101
C 1.31884209 -0.17029596 -0.94617737
O -0.80928251 -1.32276340 -0.61576868
H -1.98458997 0.40347979 -0.15079213
H -0.14223501 1.31092111 1.39066036
H -0.49018494 -0.09401462 -2.32731872
H 2.12480727 0.14844912 0.88519198
H -0.13117353 -0.41814535 1.84461955
