14

C -2.54730649 0.10816336 -0.41285886
N -1.31354091 -0.08944313 0.32438638
C -0.11075462 -0.04985948 -0.32317676
O 0.00852145 0.00221263 -1.53327131
N 0.98374943 -0.10150784 0.53595133
C 2.28865399 -0.03799516 0.08187737
N 3.25008932 -0.13828184 0.90522387
H 0.87805172 -0.27614287 1.52535219
H -1.33324748 0.10196611 1.31379318
H -3.35419228 -0.44746556 0.07097875
H -2.82571075 1.16692465 -0.47639918
H -2.40423501 -0.27224264 -1.42494952
H 4.13452821 -0.07125746 0.41105154
H 2.34539358 0.10492924 -0.99795911
