10

O -0.39644534 -1.31586291 -1.18008795
C 0.42084408 -0.88855747 -0.11019212
C -0.45007436 1.35992417 -0.60205634
O 0.72640354 1.10284113 1.39254476
C 0.17283987 0.55620372 0.24268482
O -1.02019027 2.06327073 -1.33722935
H -1.31440461 -1.28231398 -0.88746492
H 1.45449608 -1.02544145 -0.44377351
H 0.28103045 -1.49488194 0.79879733
H 0.12550044 0.92481786 2.12677716
