10

O -0.50338566 -1.3629582 -1.0817668
C -0.74804634 -0.041753784 -0.64611894
C 0.13562882 0.33869618 0.51480275
O 1.3234152 -1.4058383 1.8325522
C 0.75679547 -0.5891012 1.22256
O 0.191229 1.6549832 0.9526614
H 0.3960285 -1.4027494 -1.4265476
H 0.8552461 2.1169415 0.4258314
H -1.8008442 -0.010106866 -0.34768075
H -0.6060668 0.70188683 -1.4462936
