9

O -0.22641311 1.95479488 -0.59854255
C 0.42951220 -0.39703370 -0.68152639
N 0.23127851 -1.35556479 0.26098712
N -0.40264679 -0.88728547 1.32967060
N -0.63270496 0.37741093 1.11267673
C -0.14029913 0.70986619 -0.09952832
H 0.50025738 -2.32613971 0.23616892
H -0.68431226 2.49432033 0.06173220
H 0.92532811 -0.57036850 -1.62163842
