11

C -0.5260544 1.0406735 0.5445689
C -0.07585108 -0.047657225 -0.43104312
N 1.3785121 -0.14308038 -0.45010695
C -0.7200006 -1.3471489 -0.105017565
N -1.1592703 -2.380838 0.16480918
H -1.6136696 1.1568974 0.5324477
H -0.22097695 0.79287755 1.56709
H -0.057711937 1.9856806 0.25972617
H -0.40154225 0.22686653 -1.4405301
H 1.6812525 -0.8554957 -1.1058358
H 1.7153125 -0.42877555 0.4638917
