10

C -0.93176436 0.38127628 2.366776
C -0.47479874 0.21113262 1.2675343
C 0.066712946 0.0062591922 -0.034433786
C 1.3403538 0.1181286 -0.5506957
N 1.3045979 -0.19852874 -1.8691396
N 0.087462224 -0.50044596 -2.2020292
N -0.6659974 -0.38160068 -1.1095283
H -1.3270926 0.5336194 3.3488653
H 2.2546163 0.402629 -0.05357324
H -1.65409 -0.5724697 -1.163776
