10

C -0.76015165 0.46962543 2.61659136
C -0.49185451 0.25193833 1.46692814
C -0.12357477 0.00332636 0.10760095
C 1.14897020 0.09724780 -0.48912550
N 1.03374568 -0.22432983 -1.77164766
N -0.25295162 -0.49022061 -1.89986516
N -1.00137068 -0.37551755 -0.82434042
H -1.00802108 0.66191233 3.63813472
H 2.09783309 0.37306604 -0.05643007
H -0.64262460 -0.76704828 -2.78784659
