11

O 0.8908135 2.0388854 -0.37488288
C 0.04739206 -0.18095341 -0.9322784
N -0.19936706 0.69885266 1.1848861
C 0.24123703 0.9351908 -0.024218507
O 0.12169214 -1.5644145 1.3161354
C -0.63187575 -0.58535784 0.9639419
N -1.1331079 -0.7824341 -0.3038721
H 0.7565199 -1.3074656 0.21360137
H 0.059411515 -0.01980384 -2.0079844
H 1.0558068 2.5488174 0.43067425
H -1.2085222 -1.781317 -0.4660026
