11

C 1.2998813 0.6370111 0.5724107
C 0.10191547 -0.29007646 0.41205323
C -0.749718 0.05202408 -0.78298515
O -0.54835904 0.9501529 -1.5563518
C -1.9319221 -0.8326452 -0.9749678
N -2.8447635 -1.5246644 -1.1109393
H 1.9481347 0.5984109 -0.30722988
H 1.8837376 0.34129518 1.4479932
H 0.97928566 1.6745508 0.7027597
H -0.55010325 -0.26843327 1.2953303
H 0.4119113 -1.3376257 0.3019267
