11

C 0.25466833 0.17283429 -1.3540143
C 0.031854242 -0.7834732 -0.21492286
C -0.1830524 -0.33625183 1.1732435
O -1.2593184 -0.8085876 0.37636575
C -0.18953009 1.0803556 1.5060726
N -0.17030983 2.2023845 1.781941
H -0.18625428 1.1503336 -1.1399885
H 0.10286575 -0.9848392 1.9995602
H 1.3270253 0.30229855 -1.5333775
H -0.20087059 -0.2199135 -2.2675247
H 0.47292185 -1.7751414 -0.32735553
