10

O -1.53687793 1.51574503 -0.93985830
C -0.31295742 -0.70301902 -0.60788127
C 0.69777275 -0.42680569 0.53285883
C -0.73979390 0.77028411 -0.43325078
N 0.17720493 0.93694062 0.57166282
H -1.09913361 -1.42423416 -0.37478680
H 0.52746089 -0.99291109 1.45308806
H 0.40854153 1.74216142 1.13514567
H 1.75164666 -0.49026924 0.24437042
H 0.12613582 -0.92789220 -1.58134900
