10

O -0.8462732 1.9070836 -1.0907172
C -0.6052294 -0.57184196 -0.51806545
C 0.4959819 -0.6179311 0.5702207
C -0.38982153 0.9568349 -0.5107298
N 0.5736134 0.8358076 0.45656443
H 0.16589406 -0.9690508 1.5520864
H 1.1429852 1.529184 0.9196573
H -0.3522362 -1.0534881 -1.4641213
H -1.6005206 -0.88210094 -0.19296224
H 1.4156063 -1.1344974 0.2780673
