11

O -0.8162087 -0.9938432 0.6138133
C -0.6476079 0.80192655 2.3599102
N 0.57886463 -0.40507123 -1.1222564
C 0.13541041 0.81775373 -1.3534981
C -0.69502795 -0.060716346 1.5245
C 0.31733793 -1.282455 -0.14093734
H 0.5744208 1.3661004 -2.1736755
H -0.61268395 1.2515446 -0.7058837
H -0.60110575 1.5747991 3.0935202
H 0.47366604 -2.3321762 -0.3334952
H 1.2929344 -0.7378625 -1.7619978
