11

O 1.7500148 -0.92143756 -1.8344691
C 0.7309911 -0.2677459 -1.9156959
N -0.03338104 0.08642411 -0.85343516
C 0.34072438 -0.32162976 0.48957968
C -0.57701916 0.2529212 1.472091
C -1.3412043 0.7249996 2.2690315
H 0.32354754 0.10453358 -2.8752432
H -0.8799361 0.6171188 -0.9956067
H 0.33099 -1.416287 0.5631261
H 1.3678608 0.0020355184 0.6930469
H -2.012588 1.1390674 2.9875748
