11

O 0.32357138 1.3520507 -0.25619668
C 0.9337517 0.5393755 0.7154548
N -0.81899035 -0.44552952 -0.9557975
C 1.8248395 0.52555025 1.5408962
C -0.24941772 0.69153 -1.2557669
C -0.87897813 -0.8480859 0.3547965
H -1.3618771 -0.14741898 1.0275142
H -1.0356227 -1.0788227 -1.71828
H 2.5027974 0.2664267 2.325011
H -0.13957241 1.0456338 -2.2713928
H -1.100501 -1.90071 0.49376097
