9

O -1.1255355 0.43707514 0.6151771
C 0.92272025 0.14433844 -0.2735976
N -0.015501182 -0.8362063 -0.8209282
C -1.1420842 -0.59578323 -0.19301184
C 0.24078561 1.0069896 0.61955845
O 0.48722073 1.9700059 1.2888564
H 1.859447 0.3197851 -0.7750994
H 0.81948787 -1.2653908 -0.17028442
H -2.0465405 -1.1808139 -0.29067048
