9

O 0.37535030 1.32002637 -0.15773602
C 0.68674140 0.65494155 1.00251823
N 0.33221008 -0.55337016 1.12035770
C -0.35441340 -0.87116866 -0.12478679
C -0.30054678 0.40389213 -0.95196711
O -0.71182780 0.66574630 -2.03743938
H 0.13735209 -1.69732588 -0.64749320
H -1.39095304 -1.16858776 0.06086147
H 1.22608721 1.24584610 1.73568512
