9

O 1.7439829 0.5380087 -1.6417029
C 0.88920146 0.35288048 -0.81976026
N 0.26725408 -0.8134427 -0.44276652
C -0.6716483 -0.5556177 0.55729276
C -0.61521816 0.7587411 0.7843948
O 0.32358885 1.3357811 -0.038624555
H 0.48610324 -1.7019054 -0.8592532
H -1.28005 -1.3266675 1.0002099
H -1.143214 1.4122219 1.46021
