11

N 0.01046639 -0.14975894 0.10825961
C -0.75658797 0.30203503 -0.89617628
C -0.08841019 -1.36779098 0.88426353
N 0.99151177 0.74096954 0.36881533
C 0.74754514 1.68852710 -0.51310054
N -0.31859713 1.47210327 -1.32058987
H -0.27841903 -1.12295911 1.93133162
H -0.91119015 -1.96922651 0.49239927
H 0.84597979 -1.92675447 0.80479881
H 1.36647642 2.57420048 -0.57786125
H -1.60877510 -0.24134558 -1.28214042
