11

N -1.7532198 1.3855844 0.6631984
C 0.6588827 -0.041268867 0.17652874
C -0.6098181 1.6232041 1.1443452
N 0.41884312 0.6437989 1.1695906
C 0.98814875 -0.80194926 -0.8455622
N 0.3724278 -2.0128756 -1.2040503
H -2.3511639 2.2032833 0.775608
H -0.30618602 2.5455558 1.6478536
H 1.7462183 -0.43125057 -1.529231
H -0.19937108 -2.409287 -0.47067598
H 1.0352383 -2.7047956 -1.527605
