11

N -0.9787991 -1.7071072 0.5967444
C -0.34644422 -0.53840595 0.15605634
C 0.9669873 -0.1595106 0.2689038
N 1.0421821 1.0518986 -0.40240186
C -0.193881 1.3235773 -0.87758625
N -1.0584186 0.39202553 -0.5551086
H -1.9805237 -1.6068716 0.5132997
H -0.73488593 -1.9697083 1.5416775
H 1.8305066 -0.6170397 0.726361
H 1.8666875 1.6154913 -0.51816833
H -0.4134107 2.2156506 -1.4497776
