11

N -0.8534591 -1.7098122 0.5169052
C 0.13272648 1.7045559 -0.014234271
C -0.33370188 -0.40036088 0.24027483
N 1.1618701 1.3643024 -0.6933294
C 0.7344935 -1.1295694 -0.17357697
N -0.7878608 0.77727884 0.47531906
H 0.83953476 -1.5246376 -1.1798159
H 1.7336943 2.1729798 -0.92321247
H -1.7115719 -1.951565 0.032967016
H -0.11042763 2.740229 0.24864687
H -0.80529773 -2.0434 1.4700559
