12

O 0.40198392 1.177847 -2.1698272
C 0.75442195 1.2892582 -0.8145008
C 0.20949996 0.16898414 0.019121889
N -0.7490404 -0.6154369 -0.43185073
N -0.9791431 -1.4205562 0.6256541
C -0.16353196 -1.0911074 1.6434113
N 0.6041329 -0.08516657 1.2981822
H -0.4859526 0.7999487 -2.209742
H 0.40649146 2.238482 -0.37610778
H 1.8470205 1.2876531 -0.7511109
H -1.6765574 -2.144779 0.57174337
H -0.16932528 -1.6051266 2.5950265
