12

O -1.26109979 1.75267136 1.67112245
C 0.57548011 0.11914898 -1.57775073
C -0.16128569 0.06182581 0.41778991
N -0.02457286 0.86456265 -0.72918688
N 0.38739998 -1.24815247 0.19156819
C -0.71909828 0.51952969 1.54527568
N 0.81081403 -1.19695961 -1.18658192
H 0.88321213 0.44542073 -2.56726269
H -1.15590622 2.19960246 0.81515929
H 1.77520386 -1.49317694 -1.27921990
H -0.34251153 -1.95388607 0.24351066
H -0.76763578 -0.07058612 2.45557589
