11

C 0.10263106 -0.28177178 1.2617418
C -0.25809512 0.11642302 -0.09004396
O -0.8484117 -0.09395273 2.1065862
C 0.60871434 0.24571918 -1.2882226
O -1.5234829 0.3811482 -0.16226278
H 0.74143744 1.3153611 -1.4885442
H -1.7383684 0.3242439 0.8640045
H 1.1772336 -0.2825094 1.5069108
H 0.13671067 -0.2053 -2.1645675
H 1.589738 -0.20155375 -1.1079166
H 0.011893117 -1.3178077 0.56231403
