11

C -0.4095731 0.91590333 -1.1529222
C -0.07231681 -0.3329177 -0.37782386
O -0.05195652 -1.4355344 -0.8792304
C 0.2766706 -0.18480486 1.0930405
O 0.65099514 -1.4019064 1.653759
H 0.5181499 1.3375956 -1.5590283
H -0.8696075 1.6809492 -0.51786333
H -1.066777 0.6734082 -1.9895297
H -0.60386264 0.24242663 1.6024227
H 1.0821289 0.56045747 1.1843295
H 0.5461491 -2.0555773 0.94284624
