11

C 0.20249088 0.9306881 0.5407197
C -0.68650025 -0.2591499 0.26932225
O 1.445078 -0.72556365 -0.862905
C 0.7950452 -0.4403604 0.32845768
O -1.2017528 -0.44000846 -1.0253025
H 0.34588945 1.6318561 -0.27682757
H 0.1921672 1.3602822 1.537021
H 1.2379047 -0.9451199 1.1834564
H -1.3178002 -0.6393052 1.0726336
H 0.7423078 -0.7948586 -1.5293671
H -1.75483 0.3215396 -1.2372084
