11

C -0.53040445 -1.0802345 -1.413109
C -0.017404024 -0.2498339 -0.2887039
N 1.156604 -0.26048252 0.24834356
C 1.0877934 0.6928842 1.2550328
C -0.1425965 1.2354567 1.2676295
O -0.8694126 0.63923895 0.27644834
H -1.4213735 -1.637743 -1.1061345
H 0.2486374 -1.7815486 -1.7134683
H -0.803964 -0.45816138 -2.2706683
H 1.935809 0.9094621 1.8918432
H -0.643689 1.9909619 1.8527864
