11

C 0.15585104 -1.6787122 -0.42304757
C 0.5529648 0.8407584 -0.51648563
N -0.39917845 1.7903166 -0.3417346
C 0.22163348 -0.34070048 0.20951265
C -1.1860017 1.2916219 0.58275634
O -0.88878673 0.079551086 1.0128405
H 1.4527074 1.01131 -1.09662
H 1.1775526 -0.5382806 0.7416183
H 0.5370756 -1.729857 -1.446241
H -2.0126252 1.7983464 1.0614842
H 0.3888069 -2.5243542 0.21591723
