9

N 0.00974716 -1.41624621 1.39122121
C 0.05504187 -0.15133179 1.45527765
C -0.31546410 0.57584878 -0.71529715
N -0.55657056 0.66484414 0.48421343
C -0.10434350 0.57126675 -2.00509997
H 0.46837431 -1.81663926 2.20604676
H 0.48020929 0.44155033 2.27034212
H 0.61950789 1.24531866 -2.44802429
H -0.65650232 -0.11461140 -2.63867984
