9

N -0.120087825 -0.8463758 0.45251283
C 0.35795972 0.37663686 0.8594372
C 0.27649352 1.1779062 -0.24734755
N -0.2350418 0.48139396 -1.3118036
C -0.46206194 -0.72769374 -0.85971004
H -0.20197627 -1.676416 1.0143951
H 0.699196 0.54953533 1.8695405
H 0.5551231 2.2182436 -0.34703052
H -0.86960447 -1.5532304 -1.429994
