9

N 1.4350406 0.29998407 -0.17178485
C -0.57640165 -1.2212249 1.1606514
C 0.49626946 1.0199666 -0.64092064
N -0.8660452 0.6768724 -0.4953831
C -0.9612277 -0.35147786 0.23668106
H 2.341641 0.7166838 -0.3523247
H -1.9921182 -0.8164316 0.57858783
H 0.63359547 1.9521004 -1.1925881
H -0.51075375 -2.2764726 0.8770811
