9

N -0.3344869 0.91777366 0.17905632
C -0.8997662 0.071953975 1.1528258
C 0.49223202 0.5358928 -0.642881
N -1.4905089 -1.005351 0.8420198
C 1.393038 0.22699593 -1.5380433
H -1.8655659 -1.443753 1.6797131
H 1.0849991 -0.19618155 -2.4881825
H 2.446186 0.38765302 -1.339153
H -0.82612705 0.5050161 2.1546447
