10

O 0.68455386 -0.19672371 -1.6806394
C 0.0848157 0.8581495 0.5499082
C 0.6711134 -0.29373989 -0.30950308
O -1.2264799 0.578478 -0.014567641
C -0.63688457 -0.67496186 0.43478468
O -0.11887041 -0.06726525 1.6355423
H -1.2605865 -1.5651523 0.50884557
H 1.5936842 -0.7580434 0.041979138
H 0.35898212 1.8893481 0.7685212
H -0.15032803 0.22991067 -1.934871
