10

O 1.45617051 -1.02322988 -0.40550103
C 0.62302262 -0.28673308 0.40261075
C -0.03501743 1.01367483 -0.13134101
O -1.06079586 0.89696762 0.87396488
C -0.91733087 -0.38959496 0.23864824
O -0.79028234 0.21176603 -1.08153177
H 1.01184632 -0.26644954 1.42175701
H 1.06880283 -0.99859165 -1.29601639
H -1.66961856 -1.15932764 0.40747644
H 0.31320276 2.00151828 -0.43006736
