10

O 1.2524177 -1.3852657 0.9915646
C 0.3576966 -0.94725657 0.01497739
C -0.018467976 0.49923426 0.22046836
O 0.42282158 1.1525096 1.1448358
C -0.9799107 1.1489218 -0.7594864
O -1.451952 0.5549385 -1.6929424
H 1.4016887 -0.64100647 1.5889257
H 0.7846735 -1.0500612 -0.9947195
H -0.567423 -1.5436623 0.019074526
H -1.2015444 2.2116477 -0.5326981
