10

O 0.43609637 -1.37172508 0.33528128
C 1.16029422 -0.31992749 -0.26811041
C 0.28559791 -0.03200881 0.84269601
O 0.37302334 0.31870124 -1.23359075
C -0.60821276 0.65473082 -0.19619444
O -1.84991681 0.13510295 -0.43196115
H 0.41906327 0.13862067 1.90372825
H 2.22733077 -0.43369014 -0.41453639
H -1.74882129 -0.82854742 -0.43311901
H -0.69445502 1.73874288 -0.10419341
