10

N 0.10230717 -0.9003453 0.4391186
C 0.6790362 -0.90360075 -1.2814604
O 1.8328658 -1.0821364 -1.5019318
N -0.6245395 1.3168498 1.029782
C -0.13474512 0.3616253 0.21556564
O 0.18437645 0.64051986 -1.0071851
H -1.0402573 1.0647441 1.9090017
H 0.02230343 -1.3715836 1.3310453
H -0.8265515 2.221537 0.63680935
H -0.19479571 -1.3476101 -1.7707454
