10

N 0.81853264 -0.43293510 1.41160571
C 0.16139711 -0.35716766 0.21058354
O -0.12427415 0.96313232 -0.03051539
N -0.15115566 -1.26913896 -0.60787470
C -0.67736120 1.31596232 -1.22555199
O -0.94154013 2.45749965 -1.44740367
H 0.84680640 -1.33067879 1.86430729
H 0.75062748 0.37208406 2.01612366
H 0.14651746 -2.18427550 -0.28686873
H -0.82954995 0.46551762 -1.90440580
