11

O 0.81489189 0.62078643 -0.61313295
C 0.38343308 -0.45633606 -1.31886165
C -0.52787852 -1.30704525 -0.84469653
C 0.29039488 0.84406556 0.64094020
N -1.10629420 -1.14726779 0.41389654
C -0.71145077 -0.13650942 1.09288315
N 0.63670968 1.82318682 1.36140044
H 0.86712726 -0.52279601 -2.28587993
H 1.33500413 2.40210382 0.89757662
H -1.12887407 0.04054431 2.08211721
H -0.85306334 -2.16073256 -1.42624315
