11

O 0.90500575 1.1741716 -0.9596403
C -0.19497432 -0.25938645 0.96039146
C 1.3188599 0.1237882 -1.4112431
C 0.9147842 -1.179 -0.8476287
N -2.1255631 1.3100835 1.4431543
C -1.2406709 0.48208332 1.1842518
N 0.1846592 -1.2797077 0.20634928
H 1.2654318 -2.1002614 -1.307449
H -1.9097799 2.2420325 1.0903096
H -1.1461966 -0.60588276 1.9011363
H 2.0284438 0.09207915 -2.2596314
