11

O 0.69440806 -0.6171796 -0.7498289
C -1.1556528 0.84828854 -0.8033731
C -0.25654608 0.081550084 -1.4220384
C -0.2901611 0.33752465 1.2333184
N -1.1801338 0.9889844 0.583622
C 0.732566 -0.53009796 0.6244385
N 1.585702 -1.1467024 1.3241765
H -0.25908977 0.40965304 2.3186784
H -0.18267997 -0.06727664 -2.4925036
H 2.2178104 -1.6979434 0.7458471
H -1.906223 1.3931992 -1.3623368
