11

O 0.4637689 -1.0925859 -2.3396351
C 0.8103864 -0.14830396 -1.6619757
C 0.2655348 0.10684697 -0.33337638
C 0.47205985 1.0739622 0.62517846
N -0.31088728 0.8390311 1.716584
C -0.98633003 -0.25676572 1.4244902
N -0.6783883 -0.7377597 0.20365682
H 1.5648835 0.5801585 -2.0140224
H 1.1429422 1.9221168 0.582111
H -1.7103093 -0.73470515 2.073073
H -1.0336607 -1.5519953 -0.27608395
