10

O -0.13247774 1.21747500 -0.79593048
C 0.38838293 0.56964587 0.37914076
C 0.57561569 0.02722543 -0.99633061
O -0.08175923 -1.05288492 -1.46751799
C -0.61191641 -0.09661690 1.25015503
O -1.54557124 -0.74688363 0.82120908
H 1.54854997 0.14059200 -1.47596861
H 1.18263570 1.11743549 0.88570328
H -0.89242471 -1.16110550 -0.93902013
H -0.43103511 -0.01488260 2.33855947
