10

O -1.2582885 1.1003873 -1.1469684
C 0.6312408 -0.03831838 -0.21659905
C -0.026124833 -0.71998745 0.9311675
O -0.8864454 -0.042571366 1.5847408
C -0.3574017 0.32278368 -1.3443122
O 1.0006222 0.98486006 0.5956386
H -0.20360266 -0.15580542 -2.3321762
H 1.4483012 -0.6443625 -0.64376205
H -0.58708143 0.89079356 1.2407417
H 0.23878035 -1.6977794 1.3315296
