10

C -1.17781762 0.40868186 -0.07075996
C 0.27797657 -0.91483368 -1.17891699
N -0.94743616 -0.39289895 -1.11064581
C 1.02882914 0.08177032 0.70177622
N 1.28684982 -0.72394012 -0.32968604
C -0.20816711 0.68583255 0.88426162
H -2.17438809 0.84242112 -0.00169701
H 0.47704722 -1.57200899 -2.02458022
H 1.84379244 0.24603398 1.40435797
H -0.40668614 1.33894182 1.72589034
