11

O 1.5645671 0.5568357 1.3841146
C -0.2028498 0.42389524 -0.39775422
N -0.06289801 -1.0268837 0.13992096
C 0.6508379 -0.54721487 -1.0703009
C 0.40078044 0.41041532 1.1650113
C -1.1015395 1.4465218 -0.44382992
H -0.4389812 0.46145472 1.8670759
H -0.92250896 -1.5495474 0.010279065
H -1.8997405 1.295322 0.3046756
H 0.2791308 -0.94540805 -2.010931
H 1.7332019 -0.5253907 -0.9482615
