9

O -0.4471719 0.8521278 -0.79845935
C 0.069398776 -0.48096293 -0.82467407
C -0.4035624 1.2162936 0.49247622
O 0.84817 -1.7772951 1.0979067
C 0.39028758 -0.7644935 0.64488727
N 0.039616484 0.40335336 1.3750802
H -0.76602066 2.2224953 0.68722177
H 0.96046746 -0.5131369 -1.4559022
H -0.69118524 -1.1583813 -1.2185365
