9

O 0.77944714 -1.0859597 0.21746744
C -0.51706713 0.68215925 -0.11415038
C -0.027205873 -0.13972986 0.94136524
O -0.85304445 1.8520033 0.28725773
C 0.57717687 -0.7859235 -1.0570172
N -0.20515086 0.21388035 -1.3607638
H 1.1105528 -1.3913972 -1.7824515
H -0.15489563 1.3058474 1.2504787
H -0.7098129 -0.6508801 1.6178137
