10

C -1.63090031 -0.60168476 0.14076398
C 0.32387273 -0.94640223 -0.69163719
N -0.94779482 -1.16016366 -0.86864086
C 0.73264848 0.03340579 0.40614187
N -1.56447209 0.73114076 0.09923605
C -0.34342347 1.10640856 0.35769331
H -0.10719891 2.16692723 0.37492512
H 1.03756184 -1.33476100 -1.41368586
H 1.72347457 0.46377051 0.20512413
H 0.77623242 -0.45864148 1.39007963
