10

C -0.48321226 1.1065987 -0.109404825
C 0.45517433 0.20272367 0.6742109
N -0.41536957 -1.4173619 -0.9040935
C 0.62127566 -1.0211679 -0.22397617
N -1.4351399 0.5429992 -0.79844415
C -1.4989014 -0.75184536 -0.47926834
H -0.2943061 2.1690898 -0.23678592
H 0.03623159 -0.07069477 1.6549621
H 1.4194225 0.69906723 0.850922
H 1.5948251 -1.4594086 -0.42812204
