10

C 0.14249964 0.090221025 1.2519029
C 0.45088494 0.17151219 -1.1668203
N 0.54787093 -1.1266676 -1.1267041
C -0.3253919 -1.3747998 -0.096046984
N 0.25519845 -1.2018079 1.143101
C -0.33546895 0.70608634 -0.018442715
H 0.35839698 0.6096241 2.1805265
H -1.2427207 -0.34506273 -0.16413014
H 0.8868907 0.75631535 -1.9708327
H -0.7381602 1.7145793 -0.032553047
