10

C 0.39999098 -1.1997341 -0.5540643
O -1.0505666 -0.77602136 -0.5089449
C -0.4486558 0.4233313 -0.49657878
O 0.95974886 -1.156575 0.57820475
C -0.41349447 1.1949174 0.65576494
O 0.57101834 0.26869562 -1.2999598
H 0.46082354 -0.025417602 0.9352057
H 0.20195796 2.0885177 0.64448303
H 0.5967958 -1.9947062 -1.266758
H -1.2776188 1.1769919 1.3126472
