10

C -0.99026 0.38394916 -1.3100355
O -0.5361903 -0.39520758 -0.19292472
C 0.52264845 0.0926978 0.43396834
O 1.1136596 1.1052252 0.14433895
C 0.9625455 -0.76440406 1.6126019
O 0.41031379 -1.7737409 1.94655
H -1.8497815 -0.15443733 -1.7054642
H -1.2799462 1.3860196 -0.9839524
H -0.20461248 0.46257755 -2.0660179
H 1.8516232 -0.34267956 2.1209357
