11

C -0.880306 -0.8007283 -1.1899309
C -0.12586695 -0.064088285 -0.14097045
C -0.26291642 1.1324208 0.46989867
N 0.7598827 1.3043051 1.3961517
C 1.4479518 0.22253762 1.2978781
O 0.98574483 -0.66313356 0.39265844
H -1.2597548 -1.7548248 -0.81137276
H -1.7307726 -0.19784145 -1.5167066
H -0.25090018 -1.0088489 -2.0611138
H -1.020519 1.8874085 0.31718206
H 2.3374567 -0.057206854 1.8463256
