9

O 0.02605905 0.06372938 -1.3490665
C 0.73863983 -0.8481655 -0.44316214
N -0.78742594 0.5688294 0.6468693
C -0.7686023 0.83254665 -0.6382391
C 0.22004002 -0.4704515 0.8241723
O 1.5262235 -1.6388055 -0.883179
H 0.25470912 -1.0204284 1.7492955
H 0.12652706 0.90233356 1.2252537
H -1.3361703 1.6104119 -1.1319442
