11

O 0.18795042 -2.1253495 -1.1325676
C 0.064808965 1.228118 -0.30847034
N -0.32792002 0.7152397 0.89705426
C -0.23164167 -0.73456144 0.8354844
C 0.27955934 0.29271728 -1.2659613
C 0.10068713 -1.0191027 -0.646653
H 0.52070695 0.46187592 -2.305517
H -1.1704075 -1.2190324 1.1188759
H 0.57106835 -1.1203964 1.474241
H 0.13794598 2.3052406 -0.41670293
H -0.13275804 1.2152506 1.7502166
