10

O -1.7659017 -0.24598435 -0.6681504
C 0.8351267 -0.020290442 0.9098663
C -0.69532126 0.51573056 -0.2990368
O -0.43673956 0.5163737 1.1430382
C 0.71358114 -0.05104761 -0.5265734
O 0.72051394 -1.2654644 0.24656855
H 1.4034485 0.04166906 -1.355896
H 1.6357865 0.13142693 1.6240911
H -1.551543 -1.1597291 -0.42895848
H -0.8589513 1.5373158 -0.64494884
