12

O 0.060597904 0.33652294 1.8401304
C 0.3360076 0.70064867 -0.73599863
C -0.74939305 -0.3996909 -0.8883114
O 0.021392081 1.7297331 -0.03141365
C 0.34073403 -0.67758197 1.0937703
O -0.6090305 -1.2371966 0.25434127
H 1.0842925 -0.11654638 0.0798073
H -1.7346635 0.073878184 -0.9085568
H 0.9772764 -1.4469275 1.5357106
H -0.6002498 -1.011608 -1.7838911
H -0.14878953 1.1902698 1.1243715
H 1.0218259 0.8584987 -1.5799598
