10

O -1.7600611 0.7495498 -1.3765043
C -0.8428312 0.34299383 -0.7078495
C 0.30809823 0.1713289 1.4296416
O 1.2085162 -0.98237985 -0.9505538
C 0.22099574 -0.5025663 -1.4389089
O -0.7640422 0.618731 0.5808308
H 0.3443426 -0.9184167 1.4742202
H 1.270711 0.5536019 1.0854714
H 0.06348299 0.58131206 2.4093692
H -0.049212217 -0.61415446 -2.5057163
