10

O 1.27350639 -0.53661701 -1.19136806
C 0.50931973 0.62123052 1.23402560
C 0.09503533 -0.67496643 -1.38103567
O -2.16717368 -0.45697404 -0.80556632
C -1.04135504 -0.24406534 -0.43019988
O -0.80870138 0.33249602 0.73443950
H 1.08819657 -0.29444945 1.36547206
H 0.33231686 1.09763462 2.19813042
H -0.32679374 -1.14236397 -2.29050918
H 1.04564901 1.29807512 0.56661162
