11

C 1.26027722 -0.85156487 0.36925439
C 0.11975385 0.11693422 0.26788298
C 0.35380265 1.63017397 0.01544558
O -0.09594753 1.11718931 1.25746965
C -1.09064662 -0.18964328 -0.30504192
N -2.18887796 -0.51968269 -0.69755785
H -2.49947713 -0.22112776 -1.61814479
H 1.02450042 -1.66867727 1.05626182
H -0.50801572 2.14756010 -0.46854956
H 1.50022958 -1.26390558 -0.61383810
H 2.12440151 -0.29725637 0.73681769
