11

N -1.0735198 -0.2549596 -1.5116116
C -0.21174823 0.21716058 -0.5068105
C 1.1824955 0.45352188 -0.6544247
N -0.46925193 0.6072531 1.621848
C 0.4989723 -0.053462513 2.0127869
N 0.9349626 -0.5544625 0.10759626
N -0.920729 1.0087162 0.51889837
H 2.017791 1.08959 -0.90821147
H -1.8198869 -0.81612206 -1.1234425
H 0.43641946 -0.91840136 2.664608
H -0.57550466 -0.7788336 -2.221237
