11

N 1.58647038 -0.47836886 0.41851439
C -1.08192522 -0.82274338 -0.58614737
C 2.42549951 -1.25057654 0.08722094
N 0.69672706 0.20469769 0.92464116
C -0.52551579 0.27006574 0.14924888
N -1.33025458 1.30074317 0.68766862
N -0.45472500 0.00292746 -1.32714824
H -2.14189297 1.47769627 0.10636616
H -1.66785801 -1.72568399 -0.71404064
H 3.29037851 -1.13299014 -0.54666359
H -0.79690408 2.15423272 0.80033986
