11

C -0.5246347 1.0393522 0.5456714
C -0.076564446 -0.048394185 -0.43170097
N 1.3774251 -0.14035466 -0.45165658
C -0.7204694 -1.3483832 -0.104344055
N -1.1585951 -2.3843164 0.16305722
H -1.6116779 1.158691 0.5348844
H -0.21945137 0.78984517 1.5682672
H -0.055955175 1.9856814 0.26352248
H -0.40394527 0.2266779 -1.4399891
H 1.6797117 -0.8506651 -1.1098274
H 1.7141566 -0.428134 0.4621156
