11

N -0.3580158 0.49357456 1.9626006
C -0.15723169 0.18154678 0.61364114
C 0.52346355 -0.870752 0.053055257
N 0.34433508 -0.71343666 -1.3127737
C -0.41963932 0.3863435 -1.4924475
N -0.7376903 0.95642436 -0.35469165
H -0.7507038 1.4221696 2.0416038
H 0.4777556 0.41670114 2.5248556
H 1.0823771 -1.6921903 0.4701821
H 0.710906 -1.312401 -2.0328507
H -0.7155564 0.73201996 -2.4731748
