11

N -0.17302127 -0.01167265 1.89583513
C 0.21200203 -0.22252123 0.68117862
C 0.24493073 -0.15152212 -0.66611075
N -1.60915457 1.36046382 -0.78831332
C -0.71068471 0.67264260 -1.38036437
N 1.01818165 -0.93888248 1.65066184
H -2.16934646 1.85940695 -1.47366598
H 1.92114999 -0.57718056 1.93848270
H 0.85723605 -1.92702212 1.81339651
H 1.00213805 -0.71828914 -1.19665399
H -0.59343146 0.65457687 -2.47444624
