11

N -1.5321858 -1.0908654 0.8747516
C 0.90070945 -0.3074721 0.28537083
C 1.2710645 0.7620703 -0.6018149
N 0.31904107 1.4115056 -1.1824493
C -0.45644045 -0.36496153 0.29275194
N -1.4340014 0.25779718 -0.28008386
H 2.3305569 0.9860841 -0.7529824
H -1.8253422 -0.87255293 1.814808
H 0.65128106 2.1542492 -1.7890214
H 1.5644473 -0.9470038 0.84480804
H -1.7891304 -1.9888507 0.49386126
