10

C 0.9624394 -0.5389279 -0.22792757
C -0.091038026 0.7428941 -0.010361827
O 0.10926095 1.6868753 -0.82265055
C -1.2983189 0.03111164 0.228613
H -1.3347908 -0.7446433 0.9902347
H 0.24411207 0.8757288 1.0848106
H -2.2042818 0.23345454 -0.34014878
H 0.739835 -0.9859028 -1.197946
H 1.9182209 -0.018730743 -0.27331302
H 0.9545611 -1.2818599 0.56868964
