9

O 0.39776444 1.9385401 0.9604116
C 0.20966892 0.7862827 0.3539476
N -0.7642663 -0.9817662 -0.6983241
N 1.2158223 0.020354062 -0.26362017
N 0.5668674 -0.95315677 -0.81995064
C -1.0337511 0.10011446 -0.0050673326
H -2.0383663 0.35807618 0.29562804
H 1.0503443 -1.7205435 -1.2649134
H 0.39591634 0.45209885 1.4418885
