9

O -2.16425645 -0.51676038 -0.35820232
C -0.98817813 -0.38447488 -0.14227412
N -0.09102693 -1.41433403 0.18747331
N 1.04748043 -0.76935223 0.32525201
N 1.18411489 0.48071525 0.17357066
C -0.16267132 0.90635346 -0.16627783
H -0.51927182 1.64177900 0.56124905
H 1.86301341 -1.32342411 0.57151358
H -0.16920425 1.37949818 -1.15230421
