9

O -1.7929357 -1.2695513 -0.50296825
C -0.02202442 0.40909487 -0.84127474
N 0.74545485 0.07140319 1.1109031
N 1.0015088 0.80503726 0.110621974
N -0.24025576 -0.798676 1.1611058
C -0.8360719 -0.65937966 -0.103735365
H -0.6295015 1.2748703 -1.1218358
H 0.44247088 0.01647224 -1.7502567
H 1.3313549 0.15072942 1.9374398
