12

N 1.8893203 1.7323478 -1.2145692
C 0.506489 -1.105648 0.3713013
C 0.27938953 0.42248267 0.3870859
C -1.3992051 -0.8602011 -0.9489309
N -0.46517622 -1.6333663 -0.58595574
C 1.1914755 1.1465759 -0.5057778
N -1.1070875 0.50877243 -0.14051886
H -1.2563548 1.302259 -0.7640838
H 0.3350932 0.8500442 1.3908412
H -1.8178176 0.54613775 0.58701766
H 1.521368 -1.3667407 0.06417692
H 0.32250562 -1.5426633 1.3594134
