12

N -0.66168034 -0.87195987 -0.79834974
C -0.020948535 1.2501538 0.17342603
C 0.83648425 0.20350336 -1.7010993
C -0.520771 -0.18144998 0.4607038
N 1.0924014 -1.4526709 2.1200678
C 0.3863319 -0.8725029 1.4107513
N 0.8851378 1.1521689 -0.9686445
H -0.5599063 -1.8747079 -0.66568875
H 0.4341114 -0.85116047 -1.8779426
H -1.5003953 -0.08885859 0.9482535
H 0.48574543 1.7022436 1.0296783
H -0.8565108 1.8852409 -0.13115619
