11

O 1.8593438 0.92610276 0.4235624
C -0.046755787 -0.10485984 -0.024761828
N -0.04537092 0.29004368 1.3250004
C 1.1323279 0.9221917 1.5866195
C -1.1990093 -0.82193345 -0.6414411
C 1.1579266 0.24486396 -0.5169302
H -0.012871879 1.491789 1.696145
H 1.64711 0.068572305 -1.4645412
H -0.97346544 -1.0977196 -1.6736913
H -1.4268454 -1.7300692 -0.075233124
H -2.092389 -0.18898147 -0.6347285
