11

O -1.4750991 1.6321771 1.2685612
C -0.7536921 0.84466416 0.69070065
N -0.75763834 0.5590452 -0.65228015
C 0.22403121 -0.4283971 -1.0342512
C 0.8722233 -0.74388945 0.28828293
C 0.32401085 -0.0254529 1.2634656
H -1.3963372 1.0106376 -1.285903
H 0.9532445 -0.03481065 -1.752471
H -0.23583418 -1.3208424 -1.4790591
H 1.6751728 -1.4691525 0.37625664
H 0.5699181 -0.023978861 2.3166974
