11

O -1.9550059 0.4345071 0.006868475
C -1.7266009 -0.8775246 0.1771875
N -0.48519692 -1.216542 0.18059337
C 0.20022948 -0.013789231 -0.0048419414
C 1.6911104 0.03455254 -0.062224347
C -0.705212 0.9815576 -0.10871446
H 2.063316 -0.588223 -0.88052505
H -2.5966842 -1.5113497 0.29241958
H 2.1220765 -0.34934816 0.8671951
H 2.0479724 1.0569638 -0.21309747
H -0.6560052 2.0491958 -0.25486082
