11

O 0.6213246 -0.88460535 -1.1534221
C -1.015677 -0.6141733 0.7036359
O -1.4631635 -1.621027 1.148275
C -0.46451676 1.2065046 -0.042161368
C 0.26088473 -0.13244385 0.033466686
C 1.6881186 -0.43610495 0.22680134
O -1.5894587 0.6259683 0.66575515
H -0.76612 1.546746 -1.0367253
H 1.0128578 -0.27996382 -1.8031391
H 1.7114062 -1.4193553 0.72687984
H 0.004344203 2.0084548 0.53063387
