11

O -0.49065717 -0.62485837 -1.36666052
C 0.39161770 1.20388911 0.26550564
O -1.64416407 -0.91704943 1.59463366
C -0.86071419 -0.20190768 1.05939443
C 0.11671425 -0.24962677 -0.10385808
C 1.01607072 -1.28688654 -0.63473939
O -0.52508746 1.08310799 1.38296980
H 0.60210436 -2.24375893 -0.27358961
H -0.06302943 -0.12854657 -2.08208412
H 0.04504704 1.96435898 -0.43980315
H 1.41209813 1.40127788 0.59823145
