9

N 0.00963777 0.21480870 -0.00120580
C 0.61690977 -0.13655761 -1.28130302
C -0.42194941 -0.70034914 0.82700556
C -0.98075524 -0.12041288 2.02039723
N -1.45858046 0.21842400 3.02425760
H 1.65011435 0.22071748 -1.32215674
H -0.05489952 1.21842113 0.18689543
H 0.04726919 0.30816047 -2.10269250
H 0.59225337 -1.22321192 -1.35119752
