13

C -1.9876492 0.7532692 1.6102017
N -0.47517663 0.981515 0.67629534
C 1.5784616 -0.9000385 -1.5265039
O 0.24668162 -1.2018639 0.7551071
C 0.21224482 -0.13645288 0.19777554
O 0.80752355 0.16736932 -0.9657139
H 1.9718069 -0.5112855 -2.4650588
H -0.54484415 1.2145696 1.736494
H 2.3902261 -1.1757588 -0.8498839
H -2.6976342 1.1194786 0.85642606
H -0.46330994 1.7992352 0.07615526
H 0.9431702 -1.7699922 -1.7006361
H -1.9815004 -0.34004492 1.5993415
