13

C -1.5328157 1.0525283 1.5969782
N 1.0546777 -0.13403732 -0.4718126
C -0.21183714 -0.03410293 0.0077501596
O -0.23997602 0.84874904 1.0309638
C 1.4117235 -1.0427504 -1.5373178
O -1.1762722 -0.6349081 -0.4069994
H -1.9427907 0.11617228 1.9844395
H 1.8616143 -0.4982099 -2.3740542
H -1.3788952 1.7643182 2.4089587
H 0.49637625 -1.5301865 -1.8753412
H 2.1169527 -1.804554 -1.1869818
H -2.220635 1.4661329 0.85518324
H 1.7618768 0.43084863 -0.031766698
