11

N -0.90312195 0.035175 -0.21643382
C -0.46818766 0.9173115 0.652067
N 1.3499498 -0.18865114 0.04886262
N 0.851801 0.8244211 0.8337883
C 0.2601091 -0.6080624 -0.55407506
N 0.26910576 -1.601198 -1.5074619
O -1.18373 1.8253769 1.3184143
H -2.1003034 1.7273678 1.0266918
H 1.452331 1.3670168 1.4305215
H -0.60651517 -2.0966172 -1.5712227
H 1.0785614 -2.2021403 -1.4611522
