11

N 1.8477038 -0.11262133 -1.4372306
C 0.5983421 -0.13063169 -0.8695141
N -0.54648775 -0.2468194 -1.4445851
N -1.5022 -0.063822664 -0.43311894
C -0.8343587 0.091561496 0.6549861
N -1.2961794 0.19634494 1.9441181
O 0.5160427 0.07568904 0.4750698
H 2.5436664 -0.65055895 -0.9392418
H 1.8011978 -0.35649613 -2.4168563
H -0.82709587 0.89463484 2.505339
H -2.3006306 0.3027198 1.9610343
