13

N -0.60470283 -0.8652644 -1.4357544
C 0.44008812 -0.04216736 -0.8408252
C -0.08135006 0.5505061 0.4795862
N -0.5264927 -0.5305009 1.3478801
C 0.9885426 1.3179964 1.1392969
N 1.8209627 1.9401711 1.642504
H -0.5169616 -0.87994385 -2.4459822
H -0.51440793 -1.827079 -1.1277708
H 0.6876671 0.78335387 -1.5173701
H 1.3647891 -0.5978106 -0.6283305
H -0.88582736 1.2592682 0.23225364
H -1.3446282 -0.9424009 0.91013443
H -0.82767916 -0.1661286 2.2443779
