13

N -0.65706560 -1.29879859 -0.93055282
C -0.48341809 -0.77889891 0.44142383
C 0.67471994 0.17318583 0.40583448
N 0.36528680 1.14125831 -0.71407740
C 1.03315820 0.87925948 1.56662410
N 1.37637666 1.47550222 2.50811857
H 0.10560965 -1.93573875 -1.13376822
H -1.53246587 -1.79861340 -1.03061293
H -0.06904602 0.53171738 -1.43050852
H 1.22043850 1.55012740 -1.09155957
H -0.28415804 1.90436964 -0.49376183
H -1.45437888 -0.29826325 0.69923574
H -0.29505747 -1.54510729 1.20360454
