13

N -0.20254466 -1.7465258 -0.047900014
C 0.15964082 1.8723665 0.77438897
C -0.30592227 0.63763005 0.25448787
N 0.49246192 2.8970685 1.2089096
C 0.40322387 -0.6234734 0.66758466
N -0.34092918 0.7254846 -1.325534
H 1.4678601 -0.5945772 0.38242635
H 0.36173278 -0.7015583 1.76345
H -0.2546325 -0.23610848 -1.6566131
H 0.29609612 1.3965025 -1.745249
H -1.2818092 0.8791043 -0.6938781
H -1.1339746 -1.9138112 0.32491222
H 0.3387967 -2.5921016 0.09301463
