10

N -0.38673624 -0.69730073 2.759361
C -0.17846555 -0.5273044 1.5686922
C 0.104459256 -0.49186754 0.24085203
C 0.86992216 0.32902074 -0.73015535
C -0.54551214 -0.11308247 -1.0352116
H 1.0357847 1.3852687 -0.5256809
H 1.6884937 -0.15275757 -1.2606691
H -1.3195654 0.65046775 -1.0331733
H -0.69643074 -0.8951951 -1.7778541
H -0.5719497 0.5127507 1.793839
