10

N -0.79728804 0.87162493 -2.45233363
C -0.06969952 0.24046799 1.29168668
C -0.10833746 0.03764487 -0.16941626
C -0.40758063 0.48741485 -1.34178166
C 0.44924536 -1.04060511 0.66990506
H -0.09926497 1.40181569 -2.97251216
H 0.65759132 0.94344979 1.69083505
H -1.00841163 0.19837789 1.83456994
H 1.52477521 -1.19712811 0.65340388
H -0.14102972 -1.94306280 0.79564307
