12

N -1.11962330 -0.97046079 -0.56895542
C 0.20411378 -0.27915538 -0.53791043
N 1.19957599 -0.98106281 0.33167807
C -1.50744436 -0.28082964 0.44058876
C 0.81868637 -0.29454940 1.34629957
C -0.27102481 0.54395700 0.71853395
N 0.68838064 0.10559961 -1.79717047
H 0.01130577 0.64101747 -2.32852671
H -2.47804360 -0.34230698 0.92477828
H 1.19592288 -0.37349686 2.36315224
H -0.31001798 1.62847860 0.84022783
H 1.56816855 0.60280938 -1.73269569
