9

O -0.8296567 -0.12597436 1.7264116
C -0.20396739 -0.25699425 0.55324036
N 0.065211974 -1.3874098 -0.0062762126
O 0.6944302 -1.0758289 -1.2187169
C 0.2797724 0.8409632 -0.25592095
C 0.9162774 0.24976526 -1.3734815
H 0.29978564 1.8879597 0.014130832
H -0.19133766 0.8815571 -1.5014385
H -1.0305158 -1.014038 2.0620513
