9

O 0.8013022 1.6029642 -0.5840982
C 0.808789 -0.5035758 0.116460994
N -0.6410892 1.2437288 -0.37359005
O -1.6433285 -0.69703686 0.33744207
C 1.6465738 0.6628739 -0.32684726
C -0.58120555 0.03743225 0.02533761
H 0.9708275 -1.3725919 -0.53201336
H 1.0804805 -0.8109786 1.1328052
H -2.44235 -0.162816 0.20450298
