10

C 0.5437762 0.5233366 -0.13864411
C -0.34776497 0.9857166 1.0017499
O 1.2330214 -0.5368817 0.17527743
C 0.17537378 -0.9391444 -1.084057
H -0.69761616 0.16036756 1.6386721
H -1.1840531 1.592964 0.6453019
H -0.8863636 -0.65622133 -1.079968
H 0.20664854 -1.9822587 -0.7396681
H 0.6649817 -0.78075445 -2.0365398
H 0.29199606 1.632876 1.6178755
