17

C -0.6995792 -1.7102152 1.0712678
N 1.3673486 -0.21508756 -0.32231092
C -2.177131 1.0817636 -0.092620224
O -0.2965916 1.3155856 -0.7135747
N -0.8474913 -0.3958579 0.49269208
C 2.3786206 0.63391715 -0.9093608
C 0.080250464 0.23025174 -0.16967739
H 2.7364829 1.4112291 -0.22175954
H -1.6979697 -2.1038427 1.3021301
H 1.6697663 -0.88031405 0.37034324
H -2.3126595 1.7382731 -0.94960856
H -0.13310522 -1.7000597 2.0163577
H 1.9524932 1.1272618 -1.7858946
H -0.22074506 -2.4242046 0.3848186
H -2.8901057 0.2616696 -0.102092996
H -2.133915 1.6102692 0.85300577
H 3.2243307 0.019360196 -1.2237153
