17

C -1.5307962 2.2390392 0.13784532
N -0.6617537 1.1785605 -0.33758813
C -0.1107063 0.31881118 0.5956447
O -0.22284965 0.5207133 1.7972311
N 0.6018516 -0.74089944 0.0792132
C 1.0429806 -1.786539 0.97898906
C 0.83160055 -0.9385739 -1.3381805
H -2.4650047 1.8624858 0.5748521
H -1.0080615 2.8063674 0.91213566
H -1.763829 2.908788 -0.6923571
H -0.93197155 0.776266 -1.2221466
H 0.52558166 -2.7343667 0.776756
H 0.8273898 -1.4732114 2.0005276
H 2.1219099 -1.9553941 0.8761422
H 1.0000243 0.022386268 -1.8343848
H 1.7374419 -1.5393559 -1.465937
H 0.0061921296 -1.4650775 -1.8387427
