17

C -1.34067770 -0.25750195 2.07373855
N 1.10116837 0.17626458 -0.55622788
C -0.06039640 -0.00168495 0.16366726
O -1.22041164 0.06951188 -0.54119092
N -0.05427234 -0.18476470 1.42155963
C 2.36748634 -0.05130261 0.11388832
C -1.21322083 0.32576582 -1.93409581
H -1.89861408 0.68559649 1.99478163
H 2.42284645 0.59370987 0.99123390
H -0.72025870 1.27641798 -2.16740499
H -2.26317225 0.37698095 -2.22272903
H -1.97382760 -1.05602739 1.66645073
H -1.16793276 -0.46199696 3.13387439
H 2.48600895 -1.08827191 0.44795798
H 1.09031891 -0.12467664 -1.51666818
H 3.17652361 0.20829948 -0.57333199
H -0.73156847 -0.48632023 -2.49550349
