10

N -0.46980783 0.4773189 -1.931754
C 0.5161278 -0.9428858 -0.15682904
C -0.2314251 0.42278475 1.5289445
C 0.20926017 -1.0236005 1.2734919
C -0.20818253 0.2573032 -0.72867894
O -0.30862147 0.97060126 2.5840423
O -0.5542985 1.0633837 0.3376337
H -0.9794326 1.3491924 -2.0566056
H 1.6017967 -0.711577 -0.10802055
H 0.42458332 -1.8625206 -0.74222445
