11

N 0.44528204 0.15199214 -2.046855
C -0.67062414 -0.41822517 1.3290272
C -0.6487541 0.11550439 -1.2213261
N -0.2690627 0.14527895 0.033014003
C 1.1412716 0.21265332 0.016092181
N 1.5233464 0.1769175 -1.3262236
H -1.4641411 -1.1533002 1.1970084
H 0.9894186 -0.6322411 1.0166007
H 1.5935347 1.0363064 0.5733392
H -1.6620388 -0.022035312 -1.5715737
H -0.9782323 0.387149 2.000897
