11

N 0.32237242 2.00569335 0.84711899
C -0.23328634 -1.41955178 -0.11272186
C 0.14593025 0.74615931 1.13658498
N 0.31039371 2.11563627 -0.51881560
C 0.12687142 0.91845856 -1.00342529
N 0.01828140 0.00418280 0.00048107
H 0.10574973 0.32342672 2.13118218
H -1.30562912 -1.63029279 -0.07161428
H 0.06719904 0.66005843 -2.05189208
H 0.17084502 -1.78097539 -1.06004563
H 0.27127240 -1.94279547 0.70314750
