12

N -1.1354431 -0.34790298 0.3121278
C -0.030518238 1.6900095 -0.34471464
C 0.10776961 0.45530856 0.43821257
C -0.8742883 -1.4409641 -0.8681965
N 0.3821988 -1.424732 -1.0131925
C 1.1478188 -0.5150824 -0.15955584
N -0.15546349 2.6635122 -0.9527875
H -1.3487265 -0.8992477 1.1403425
H 1.6497324 -1.0936306 0.6241354
H 1.9100075 0.004288242 -0.74326926
H 0.30877483 0.7030082 1.4834754
H -1.9618621 0.2054331 0.08342251
