12

N 1.4151801 -0.19376 -1.0062038
C 1.2161453 -1.3179388 -0.61863136
C 0.782267 0.934441 -0.3317252
C -0.39639014 0.35800228 0.48972598
N -2.6165802 0.2821054 -0.93776643
C -1.6399204 0.34176394 -0.32125187
N -0.00632845 -0.94125056 0.9628731
H -0.5658231 1.0356592 1.337462
H 0.46414733 1.6867748 -1.0578277
H -0.8196005 -1.5320649 1.1091325
H 1.5266088 1.3733029 0.33675584
H 0.6402945 -2.027036 0.037457064
