11

N 1.560783 0.47936904 0.38001287
C -0.43394735 -0.1615341 -0.8854528
O -0.5239676 -1.456105 0.34057257
C -1.4457306 -0.35838094 0.17084277
C 0.63527244 0.82146347 -0.5497904
O 0.6138227 1.8817812 -1.1522156
H -2.4559984 -0.66331756 -0.10722033
H -1.4084674 0.27434313 1.0581422
H 2.2918983 1.1384735 0.60045034
H 1.4907587 -0.3892085 0.88673794
H -0.32442388 -1.5668843 -0.74207956
