10

O 0.89448845 0.02988593 1.4318749
C -0.6017401 0.28908134 -0.011280178
C -0.21191481 -0.8108601 0.9640153
O -0.47643867 -0.13946196 -1.6296637
C 0.73230606 0.8441196 0.34198752
O 1.5047556 1.6235764 -0.13442351
H -0.92362475 -1.0121679 1.7655587
H 0.1661708 -1.730434 0.51523805
H 0.20851457 0.4721149 -1.9662533
H -1.2925172 0.43414596 -1.2770542
