10

O 1.21736280 -1.66364013 0.41470923
C 0.38750456 -1.03696377 -0.20260786
C -0.37269626 0.49606406 -1.16301968
O 0.35232879 -0.71449411 -1.55060444
C -0.68352834 -0.16348598 0.19438520
O 0.00756902 0.58121609 1.45262188
H 0.69848815 -0.09281658 1.69394601
H -0.68866602 0.56202599 2.12554381
H -1.22567120 0.67894323 -1.81704948
H 0.30730851 1.35315122 -1.14792489
