11

C -1.0549653 -0.061549988 -0.848571
N 0.37705877 -0.40245712 -0.53071284
C 0.82249314 -0.36485663 0.891314
C -1.2758834 1.2956595 -0.54160213
N -1.4121577 2.4379723 -0.34272808
H 0.21738777 -1.0805428 1.4507436
H 0.5559616 -1.3284036 -0.91889954
H 1.8844831 -0.61534613 0.975209
H 0.62863797 0.6425483 1.26581
H -1.6990436 -0.7628579 -0.32541844
H 0.9560276 0.23983377 -1.0751445
