11

C -1.1438861 -0.31410015 0.7048333
N -0.057430945 0.6588786 0.64286035
C 1.1031958 0.1853364 -0.08179335
C 0.8303547 -0.16960867 -1.4974197
N 0.55315703 -0.41821533 -2.5908065
H -1.5133173 -0.63757926 -0.27971834
H -1.9750282 0.1233596 1.2655863
H -0.8004095 -1.1981767 1.2539445
H -0.38778377 1.519283 0.21984297
H 1.8846194 0.9512341 -0.06084765
H 1.506529 -0.7004117 0.4235181
