10

O 1.54907033 0.17012048 -1.09050108
C 1.22756387 -0.51517424 -0.14002329
C -0.04385666 -0.30007268 0.59799879
C -1.35543696 -0.51765973 -0.13795601
N -0.72447756 0.87642957 0.06095562
H 1.83276012 -1.38270478 0.17822262
H -1.10271100 -0.75014739 -1.18598610
H -0.17094260 1.33092862 -0.66721256
H -1.19614432 1.49567552 0.70436730
H -0.01582495 -0.40739540 1.68013465
