10

O 1.8305197 -0.16015147 0.77646655
C 1.1360275 -0.8120906 0.031892482
C -0.117755845 -0.26773474 -0.56014866
C -1.061252 0.38634288 0.39434668
N -0.2917145 1.1806207 -0.53796226
H 1.4003426 -1.8512473 -0.24741209
H -0.5082462 -0.7825153 -1.4344583
H -2.1276464 0.32772797 0.19287694
H -0.77270967 0.39519984 1.4433678
H 0.5124351 1.583848 -0.058969207
