10

O 0.30867496 -0.14435507 1.8986888
C -0.26963657 0.98851365 -0.91105986
C 0.35660058 -0.29761264 -0.47804803
C 0.96574765 -0.28829357 0.8935349
N -1.0794665 -0.4935359 -0.42321047
H -0.40048137 1.6106946 -0.010676592
H -1.4199816 -0.32783502 0.52449316
H -1.410056 0.23994426 -1.2175567
H 0.8811426 -0.9114248 -1.2074351
H 2.067456 -0.3760955 0.93126976
