9

O -1.18975571 -0.40075784 -1.84419606
C -0.48580957 -0.17260093 -0.71810001
N -0.84129241 -0.75579241 0.41236851
O -0.02288489 -0.39360372 1.38253011
C 0.95317440 0.52006976 0.77118306
C 0.66031526 0.68036308 -0.64205583
H -1.90490199 -1.01834667 -1.63658763
H 1.94098643 0.07904945 0.94800834
H 0.89016815 1.46161906 1.32684929
