9

N -0.43261651 2.54116438 1.78787308
C -0.18612326 1.53839514 1.11228090
O -0.28679233 -1.28793834 -2.89682849
C 0.03802363 0.55282846 0.33433435
C 0.20469645 -0.39377386 -0.53893358
C 0.06518015 -1.11610180 -1.77653821
N 0.59012678 -1.75290406 -0.65885487
H 0.24678818 -2.56050003 -0.15147151
H -0.23928326 2.47883002 2.78813835
