9

N -0.26047975 1.2201334 1.5164887
C -0.36857527 1.1597542 0.1669237
O -0.73806155 2.0667653 -0.5435241
C 0.0119734835 -0.1419342 -0.41042113
C 0.30244824 -1.1632913 -0.97189325
C 0.63450426 -2.3410342 -1.627134
N 0.9087472 -3.3217645 -2.1725774
H 0.034840815 0.4373768 2.0746553
H -0.5253976 2.0839944 1.9674822
