10

N 0.78820808 -1.70056226 0.40816348
C 0.17920773 -0.86866427 -0.51133879
O -0.70847085 2.43792799 0.18564618
N -0.05333428 0.41870466 0.02975994
C -0.76059937 1.36388355 -0.62474765
O -0.07891702 -1.18586195 -1.64224575
H 0.60027832 -1.57856974 1.39157350
H 0.38996616 0.63997268 0.92029546
H 0.84898838 -2.66016892 0.09960772
H -1.20532697 3.13333832 -0.25671355
