10

N 0.4452846 -0.10701756 0.19107917
C -0.8804457 0.26493862 -0.1324425
O -1.2949934 1.3887631 -0.007452974
N -1.6330899 -0.8014824 -0.554595
C 1.4077599 0.7784289 0.51988024
O 2.5737882 0.25315312 0.82189727
H 2.3949754 1.4415301 0.83634776
H 0.7179637 -1.0868363 0.23723987
H -1.1896416 -1.5873057 -1.0020964
H -2.5416012 -0.54417205 -0.9098574
