15

N -0.47695816 -2.2385292 1.2971101
C -0.31651703 -0.924986 0.9003928
O -0.79752463 4.1387484e-05 1.545773
N 0.41464722 -0.76088274 -0.24637102
C 0.9330813 0.5402506 -0.6733452
C -0.13511564 1.5819851 -1.0143263
O -0.6053249 2.3024151 0.0909764
H -1.1860884 -2.3396087 2.0089383
H -0.47580302 -2.9560668 0.5887593
H 0.97004104 -1.5576254 -0.5230602
H 1.5261126 0.34028998 -1.5713294
H 1.5982436 0.96901757 0.08779049
H -0.94307727 1.0835624 -1.5743487
H 0.31913084 2.318597 -1.6868358
H -0.8248476 1.6415399 0.7698759
