13

C -0.5474558 0.025809022 1.7075713
C 0.026851688 0.16826132 0.32967797
N 1.1353905 0.79276866 0.2323863
O 1.5619255 0.8749498 -1.1070205
C -0.7179721 -0.41628388 -0.85779256
O 0.057663117 -1.3147522 -1.6126496
H 0.08182345 0.53215617 2.440459
H -1.5589242 0.44679672 1.7459987
H -0.63005894 -1.0351206 1.9702159
H 2.4187424 1.3094276 -1.0259979
H -1.0985807 0.41514906 -1.4715511
H -1.5814503 -0.97998065 -0.4907218
H 0.85204554 -0.8191811 -1.8605759
