13

C 0.82016094 -0.32180133 1.12091503
C 0.75957091 0.58710632 -0.11134281
N -0.59128619 0.85397383 -0.61236453
O 0.73927209 -1.68716729 0.83364244
C -1.48872497 -0.07820516 -0.99706055
O -1.37431047 -1.28510563 -0.88104877
H 1.79361959 -0.16443230 1.59840682
H -2.39111881 0.37075594 -1.44964590
H 0.04461730 0.01152125 1.83073070
H 1.17988557 1.56799168 0.13611152
H -0.83353053 1.81262605 -0.82046842
H -0.03259199 -1.81149097 0.25376892
H 1.37443671 0.14422754 -0.90164464
