13

C -1.1219871 0.9258995 -0.26806703
C 1.4539125 -0.6538702 0.7072
N 0.4483966 -1.4362967 0.8965753
O -0.41039318 2.0545661 -0.6549431
C -0.54387856 -0.3707901 -0.7306208
O 1.4313169 0.23130208 -0.21104667
H 2.3660998 -0.72600526 1.3134389
H -2.114312 0.9765872 -0.7463582
H 0.52119374 1.8422344 -0.463354
H -0.070965745 -0.3417276 -1.706971
H -1.2946976 0.8723018 0.8172126
H 0.51552755 -2.140428 1.6219528
H -1.1802132 -1.2337731 -0.5750189
