11

C 1.3807796 0.005177139 0.021629607
N 0.2392436 -0.625627 -0.632118
C -0.9979294 -0.49905607 0.10996876
C -1.4273307 0.90350723 0.33919755
N -1.7081436 2.0159357 0.4738987
H 1.2467058 1.0813394 0.20878272
H 2.266917 -0.13513273 -0.6040514
H 1.5642958 -0.49407592 0.97970307
H 0.11525629 -0.24016261 -1.5611507
H -1.7967557 -1.0251858 -0.4218332
H -0.88303846 -0.9867191 1.0859729
