9

O 1.43684034 -1.74698365 0.24021342
C 0.66432554 -0.81007307 0.10446704
N -0.97504642 0.47304917 -0.93293602
N -0.61291501 1.01415219 0.19181124
N -0.21352553 -0.61479717 -0.98665553
C 0.34025281 0.35129561 0.88006456
H -0.30128580 -1.22973594 -1.78063570
H -1.06686882 1.87481673 0.45712737
H 0.72822290 0.68827622 1.82654344
