9

O 0.834446 -1.725034 -0.62299997
C 0.27290213 -0.5762429 -0.2121231
N -0.6615818 0.06641431 -0.8949514
N -0.9060608 1.1231678 -0.12455425
N -0.21409398 1.2131585 0.987676
C 0.5605998 0.13148336 0.96777153
H 0.44324237 -1.9570775 -1.4743224
H -1.5901772 1.8144294 -0.38320258
H 1.2607235 -0.09029889 1.756706
