9

O 1.4425819 -1.5767918 0.7790055
C 0.6719312 -0.7285386 0.35524657
N 0.6799875 -0.18314841 -0.9492795
N -0.89157337 0.8002943 -0.07474605
N -0.2533138 0.7279028 -1.2045125
C -0.43530345 -0.004647919 0.9078455
H 1.3265159 -0.43357927 -1.6810865
H -0.87427443 -0.045164164 1.8904756
H -1.6665514 1.4436731 -0.022949027
