9

N -0.32129812 -1.0240755 -0.42030773
C 0.99424446 -0.5006313 -0.24681936
C -1.2806606 -0.18475012 -0.032499198
N 0.99157274 0.6648733 0.24645637
C -0.43366873 0.9757174 0.4276175
H 1.8705971 -1.0772258 -0.52400047
H -0.686654 1.8854451 -0.12908813
H -0.63371915 1.2022226 1.4812073
H -0.5004138 -1.9415759 -0.8025663
