12

N 0.15190800 0.54287556 1.10221569
C -0.53830088 -0.67922186 0.72673006
O 0.82328472 2.44308322 -0.05315714
N 0.19095820 0.47954805 -1.12489797
C 0.43722365 1.29650793 -0.02770742
C 0.00766395 -0.89371717 -0.69364269
H -1.62712190 -0.54536680 0.70478138
H -0.29497949 -1.51285865 1.39042872
H -0.12600532 1.06079136 1.92296109
H 0.71860416 0.69087647 -1.95889172
H -0.69937897 -1.43719858 -1.32623765
H 0.95614373 -1.44531941 -0.66258265
