11

C 1.3595177 0.91026896 -0.2226449
N 1.4722097 -0.19186492 -0.742695
C 0.010560822 1.0932136 0.60753125
C -0.49856514 -1.0987594 -0.10551346
N -0.9534069 0.173892 0.11195063
H 1.3792226 -1.0749946 -1.2042567
H 0.30088577 0.8379067 1.6318958
H -0.3561158 2.12096 0.57886624
H -1.488325 0.54369104 -0.6655305
H -1.1271511 -1.7050534 -0.75852185
H -0.09883267 -1.6092601 0.7689185
