11

C 1.3817486 0.0048133507 0.022923032
N 0.2398348 -0.6239099 -0.63152176
C -0.996636 -0.49985102 0.10996628
C -1.4286036 0.9026045 0.3379196
N -1.7135247 2.014722 0.46863845
H 1.2500831 1.0806886 0.21223211
H 2.266341 -0.13615973 -0.60378003
H 1.5654887 -0.4936828 0.98091453
H 0.11684749 -0.238903 -1.5613033
H -1.7968099 -1.0235009 -0.42284077
H -0.8847689 -0.98682094 1.0868517
