11

C 1.08159011 0.35941958 0.96832886
N 1.17543830 -0.39173790 -0.09619206
C -0.03090771 -0.48424019 -0.97231480
C -0.36844863 0.80645190 0.91192351
N -1.08081725 0.01992910 -0.12561661
H -0.35016123 1.87381513 0.64543408
H 2.05762234 -0.79393036 -0.38598603
H -0.22110018 -1.50995961 -1.31167471
H 0.14108316 0.15282855 -1.84987404
H -1.53066429 -0.76509952 0.33590168
H -0.87363402 0.73252349 1.88006995
