15

N -1.09587758 -2.19972537 0.90250144
C -0.70222150 -0.90465626 0.67252873
O -0.87829451 -0.00858587 1.49107730
N -0.05099618 -0.70811877 -0.51421549
C 1.19067814 1.46480347 -0.22528052
C 0.25065219 0.60404757 -1.07510730
O 0.54657677 2.18843466 0.78730386
H -1.69611485 -2.29157953 1.70632120
H -1.31079409 -2.79782731 0.12423535
H 1.99716950 0.82048767 0.16168585
H 0.71985248 0.41366203 -2.04679051
H 1.65259376 2.20843423 -0.88361085
H 0.01855956 -1.49801489 -1.13542140
H -0.66956898 1.17203677 -1.25275833
H 0.02778516 1.53660128 1.28753058
