10

O 1.90511448 0.58026868 0.12671348
C 1.27020037 -0.18399547 -0.56042185
C -0.87631015 -0.21684828 0.79138098
C -0.22225478 -0.20617857 -0.55207825
N -0.90064224 0.97482600 -0.02913109
H 1.76505949 -0.90673255 -1.23943256
H -0.21398538 -0.23965555 1.65399956
H -0.70759928 -0.70136346 -1.39024443
H -1.82967364 -0.72855796 0.90418651
H -0.18990874 1.62823702 0.29502786
