11

N -0.35820308 0.4940236 1.9630231
C -0.1559838 0.18255979 0.6146002
C 0.5249886 -0.8690202 0.053161874
N 0.34631723 -0.7132681 -1.3132176
C -0.41955802 0.38581908 -1.4941819
N -0.73724616 0.95626825 -0.35685122
H -0.7504364 1.4234912 2.0418575
H 0.4748468 0.41713694 2.5292816
H 1.0822526 -1.6926718 0.46968144
H 0.7112279 -1.3145477 -2.03092
H -0.71820563 0.7302087 -2.4764347
