11

N -0.53244297 0.47082943 0.90149875
C 0.51476334 0.02841355 0.30396618
C -1.58367319 0.37467257 -0.09050060
N -1.05004267 -0.18779155 -1.32700074
C 0.18757817 -0.38451804 -1.08619122
N 1.77629883 -0.01213576 0.83830086
H 1.81643076 0.11342732 1.83779797
H 2.40486355 -0.71355511 0.47661545
H -2.40253841 -0.25965541 0.26904362
H -2.00803711 1.36282201 -0.30208538
H 0.87679985 -0.79250899 -1.82144513
