10

O -1.55282042 -0.30461940 1.39210239
C 1.55879164 0.24546230 -1.22962778
C 0.78507481 -0.39260864 0.89110186
N 1.78221690 -0.22334618 0.07141078
N 0.24486497 0.47001454 -1.45405653
C -0.56410749 -0.11311135 0.51735612
N -0.84348361 0.32726417 -0.66914722
H -0.01302557 0.81450747 -2.36952452
H 0.98702834 -0.76227510 1.89561428
H -2.38453978 -0.06128790 0.95477070
