10

O -0.56397456 2.001811 0.34158254
C 0.7712977 0.120992206 0.97724473
C -0.20051989 0.73569655 0.13119116
N 1.1556073 -1.1118488 0.8121848
N -0.28797346 -1.1928655 -0.943025
C 0.61581326 -1.8906728 -0.21954052
N -0.73857397 0.075378686 -0.845666
H -1.2260808 2.2337594 -0.32926884
H 1.204461 0.7024818 1.7900935
H -0.73005635 -1.6747324 -1.7147967
