10

O 0.23147246 1.6608719 -1.3528085
C 0.029018207 0.66848844 -0.4875006
C -0.87503636 -0.18397887 1.3832645
N -0.8953873 0.79650086 0.42509615
N -0.03317656 -1.2368848 1.2625086
C 0.8087016 -0.51266545 -0.6614333
N 0.7261606 -1.5083501 0.17765841
H -1.0364053 -1.4178786 1.9012537
H 1.4437112 -0.6292976 -1.5321379
H -0.39905846 2.3631947 -1.1159011
