10

N -0.5832512 0.021380067 1.5966967
C -0.023051277 0.5560147 -1.8662562
C -0.111895785 -0.031744037 0.29625905
O 1.0150582 -0.27844676 -1.5898111
C 0.91448367 -0.6872576 -0.28833985
N -0.7354278 0.72142726 -0.7075628
H 1.6112754 -1.4409164 0.048808444
H -0.17211214 1.6904712 -1.2917054
H -1.5717077 0.22635885 1.6358318
H -0.34337127 -0.7772872 2.166079
