10

N -0.4365143 1.525836 0.27592894
C -0.108908944 0.1958739 0.013687567
C -0.8165511 -0.92758006 -0.18066323
O 0.07002606 -1.9358759 -0.5150682
C 1.3466947 -1.500395 -0.52447003
N 1.2161064 -0.1904379 -0.20171694
H -1.4352396 1.6665384 0.35098508
H 0.027578792 1.8946626 1.0962242
H 2.0017312 0.44161868 -0.18336757
H -1.8649235 -1.1702404 -0.13153997
