10

N -0.6562177 -1.2180891 1.1900765
C -0.17961122 -0.3070138 0.25532436
C -0.78073823 0.7320058 -0.37598553
O 0.14148289 1.2685674 -1.2483293
C 1.2317245 0.5163178 -1.0828346
N 1.1179802 -0.43069655 -0.2123368
H -1.3187891 -0.8371759 1.8497901
H 0.10204292 -1.6892486 1.6642693
H -1.7541281 1.1960391 -0.35864693
H 2.0962539 0.76929367 -1.6813269
