10

C -1.0776967 0.17905478 0.49786824
O -0.7420264 0.7720683 -1.8201998
C -0.50333315 0.35132995 -0.7099378
O -0.40833327 -0.44271874 1.5606635
N 1.0650245 -0.28693962 -0.60984427
H -2.1205115 0.44419107 0.64547473
H 1.1344484 -1.0382509 -1.2951028
H -0.29546264 0.22021936 2.2537751
H 1.2192907 -0.6409256 0.3388183
H 1.7285999 0.4419713 -0.8615149
