12

N 0.8791572 0.922963 -0.20152298
C -1.9245274 0.108296484 -0.30764645
C -0.8155807 -0.5687943 0.37326908
N -1.5692666 0.19398591 -1.5039479
C 0.54367214 -0.18784742 0.36546063
N 1.5249374 -0.9911926 0.944126
C 0.80353856 1.662711 -1.1725059
H 2.4520595 -0.5915831 0.9612557
H 1.4986424 -1.9621202 0.6903479
H 0.51357824 2.710605 -1.041277
H -2.9100816 0.2806282 0.14987257
H -0.99612933 -1.5776517 0.74256825
