12

N -0.91671503 -1.25442639 1.27220494
C 0.78660068 -0.61049232 -0.31844658
C 1.93269436 0.97511427 -1.86408032
N 1.40789557 0.23208710 -1.04820797
C -1.19251555 0.97200961 0.09455318
N -1.62116973 0.11467403 -0.72519630
C -0.55067688 -0.31486663 0.25029163
H 1.23076075 -1.58500607 -0.14704620
H -0.38895161 -1.09450485 2.12167014
H 2.59610011 1.75154782 -1.47492648
H -1.37880623 2.00472512 0.36022524
H -1.90521616 -1.19086171 1.47895906
