10

N -0.15776251 -0.748898 -0.8446284
C 1.0600382 -0.2867065 -0.4193224
C 0.83612823 0.59472436 0.6087419
C -0.5711321 0.66488934 0.80922925
C -1.1569566 -0.17659666 -0.10348169
H -0.29709402 -1.4102607 -1.5881851
H 1.9767383 -0.6235278 -0.88098705
H 1.5914725 1.1342988 1.1627728
H -1.0871543 1.267637 1.5437593
H -2.1942773 -0.4155598 -0.28789887
