10

N -1.2549347 -0.14652632 -0.43130097
C 0.65766454 0.29399458 0.8089335
C -0.18215285 -0.73186606 -1.0048766
C 0.9853205 -0.52684134 -0.26802322
C -0.71758145 0.5526627 0.70764047
H -1.4042377 0.93595487 1.4525388
H -0.29581702 -1.253469 -1.9463403
H 1.9693775 -0.9059892 -0.5146784
H 1.3188522 0.6666832 1.5803579
H -1.0764909 1.1153969 -0.38425115
