10

N 1.03734981 -0.74089123 -0.59918843
C -0.19466518 -1.03591679 -0.80921959
C 1.02899348 0.40649543 0.29909864
C -0.41094831 0.72450069 0.57530451
C -1.14809686 -0.16421949 -0.10643360
H -0.47585094 -1.86498489 -1.45459672
H 1.56312761 1.23927819 -0.17529594
H 1.58791960 0.15834594 1.20995623
H -0.76147711 1.52666532 1.21277534
H -2.22635170 -0.24927313 -0.15240069
