9

O -0.52788053 -1.03825258 1.69674747
C 0.41267384 -0.60834737 -0.52094750
N 0.42143233 0.56457629 -1.20931598
N -0.57023479 1.04635046 0.59533142
N -0.16577709 1.54546365 -0.53643220
C -0.23574101 -0.26140020 0.64079542
H 0.83891250 -1.52542622 -0.89148228
H -0.98024784 -0.47920331 2.34525495
H 0.80686256 0.75623936 -2.11995099
