9

O 0.37243095 -0.07603418 2.0226448
C -0.66170436 -0.5968431 -0.13303472
N -0.36957806 -0.06114882 -1.3485065
N 0.96252745 0.9203176 -0.031509597
N 0.5999334 0.8415838 -1.278873
C 0.21754758 0.059669126 0.69543886
H -0.78442305 -0.26786762 -2.2427762
H 1.0811278 0.5273186 2.2899432
H -1.4178617 -1.3469955 0.026672827
