9

O 0.81635296 -1.6758072 -0.76476127
C 0.26904908 -0.5625501 -0.24749847
N -0.3104647 -0.5123762 0.9400449
N -0.69343007 0.75876874 1.0222358
N -0.4088222 1.5255253 -0.0066357567
C 0.21376166 0.70614713 -0.84958357
H 0.7034537 -2.387033 -0.12076253
H -1.1714234 1.1114808 1.8353374
H 0.58152294 1.0358446 -1.8083762
