13

C -0.5472787 0.026579296 1.7050608
C 0.02715121 0.16810791 0.32738513
N 1.1382484 0.79125226 0.23552407
O 1.5624008 0.87323433 -1.1005555
C -0.7179308 -0.4174389 -0.8578032
O 0.059745543 -1.3130157 -1.6123525
H 0.081214316 0.5303445 2.440328
H -1.5576429 0.45054224 1.7451212
H -0.6329357 -1.034013 1.9688442
H 2.4158583 1.3127865 -1.0272455
H -1.1007464 0.41305032 -1.4718006
H -1.5836782 -0.980101 -0.49221724
H 0.8555942 -0.821329 -1.8602887
