13

C 0.42864692 -0.36014518 0.57760954
C -0.77322596 1.0725414 -0.7922467
N 1.308907 -1.3359187 0.39352387
O 0.45715037 1.540443 -0.32988912
C -0.86418414 -0.3531967 -0.21186174
O 0.57864654 0.39122888 1.6352426
H -0.79587376 1.0287405 -1.891323
H 2.1531072 -1.3255063 0.9452052
H -1.6315652 1.686441 -0.47195578
H 1.2344512 -1.9731243 -0.3857819
H 0.47795254 1.2979397 1.0168756
H -0.8793666 -1.1484923 -0.96807855
H -1.6946464 -0.5209508 0.48268
