10

O 0.9672194 -1.578537 -1.0888888
C -0.65640575 1.1836046 0.07372404
C 0.32183585 -0.5831768 -0.48262224
C -0.76480937 0.38831624 1.2633618
N -0.03452991 -0.71756613 0.82809675
N -0.014411079 0.55359054 -1.0023092
H -1.176185 2.1219637 -0.08190746
H 0.17927006 -1.5220655 1.394451
H 0.05643695 1.44988 1.0978795
H 1.1215789 -1.2960099 -2.0017855
