10

O -0.96687688 1.25334277 -1.46538444
C 0.43914138 -0.73269105 1.03017744
C 1.43651102 -0.84425324 -0.11993415
C -0.23481015 0.45948013 -0.70776132
N 0.92326959 -0.07617371 -1.11891838
N -0.61887766 0.14963729 0.51646319
H 0.92282880 -0.30315006 1.91229995
H 0.04206102 -1.71848757 1.29344762
H -0.48642192 1.33285697 -2.30527575
H -1.45682533 0.47943841 0.96488553
