10

C -0.018623 -0.97399294 -0.85790807
O 0.594485 2.2895405 -0.08658233
C 0.3403363 1.1233835 -0.09243557
O 0.46949846 0.32383642 -1.1813428
C -0.17957449 0.24468794 1.0337374
O -0.04426144 -1.071271 0.54039395
H -1.2235844 0.5081961 1.253722
H 0.41933733 0.3636012 1.9407614
H -1.0217423 -1.0823481 -1.2930516
H 0.66412866 -1.7256336 -1.2572944
