10

O 0.28693837 1.0794164 0.7897182
C -0.7938581 0.14476462 0.57433003
C 1.2578582 0.71828586 -0.07785648
C -0.25837073 -0.7813567 -0.5401452
N 1.0847447 -0.26968172 -0.8475927
H -0.18733104 -1.8259461 -0.21992743
H -0.98641515 -0.3684556 1.5201334
H 2.1479805 1.3397051 -0.03788927
H -0.8726969 -0.7532815 -1.4457986
H -1.6788497 0.7165496 0.28502807
