10

O 0.43771833 0.32622072 1.3704001
C -0.0017438582 -0.9236834 1.3033403
C -0.27466673 -0.12423093 -0.8217039
C 0.17048201 1.0094645 0.10830846
N -0.47778377 -1.2684398 0.10290668
H -1.2227224 0.07483176 -1.3285695
H -0.6139291 1.7489835 0.28932005
H 0.41652936 -1.9620429 0.7377699
H 0.47048014 -0.38971588 -1.5749077
H 1.095636 1.5086124 -0.1868641
