10

O 0.09929268 0.88837183 1.03540556
C 0.45089202 1.36716202 -0.17823536
C -0.08857065 -0.68029227 -0.70596618
C -0.28815920 -0.48594372 0.81353884
N 0.39434254 0.61867293 -1.19563809
H 0.64941999 -1.45545288 -0.93672342
H 0.35704143 -1.11928075 1.42804481
H -1.01643935 -0.94085253 -1.22515880
H -1.32474269 -0.59886973 1.14001426
H 0.76692335 2.40648508 -0.17528168
