11

O 1.2918715 0.7583557 0.53888357
C 0.05222043 -1.1278236 -0.7396467
O -1.4316269 -0.18763533 1.980911
C 0.097933434 1.597384 -0.48450637
C 0.091071695 0.20637704 -0.009137085
C -0.8576038 -0.4584441 0.97506845
O -0.9046649 -1.6138902 0.2482377
H 1.5234479 1.4147174 -0.29295012
H -0.38504642 -1.1078514 -1.7390722
H -0.4533629 2.225192 0.22822334
H 0.97576004 -1.7063814 -0.70601153
