11

N -1.4182061 1.1262041 0.5928312
C 0.6624144 -0.041148845 0.20296603
C -1.9229462 2.1691005 0.43052945
C -0.7418076 -0.11764773 0.7600748
C 0.94184726 -0.44819757 -1.1717515
O 1.2645874 -1.2866526 -0.068638004
H 0.12891237 -0.80904233 -1.8008056
H -1.3007461 -0.90696704 0.2478173
H 1.790556 -0.017536905 -1.698833
H 1.3112621 0.6960203 0.67857695
H -0.7158737 -0.36413202 1.8272325
