11

N 0.46398887 0.33821794 -2.9249282
C 0.3587217 0.63117087 -1.8134503
C 0.20729592 0.9675367 -0.39363137
C -0.59811366 -0.08869069 0.34126887
C 0.06016915 -1.1816746 1.0546013
O -0.47526565 -0.06054076 1.7484337
H -0.28292614 1.9440672 -0.30860692
H 1.1966943 1.0570323 0.06793323
H -1.6127753 -0.23886463 -0.027270347
H -0.46531218 -2.122976 1.2086444
H 1.147523 -1.2452781 1.0470054
