11

C -0.43745175 -1.3817327 -0.566653
C -0.5133972 0.013670736 0.03672056
C 0.8402504 0.6475365 0.22588511
O 1.8945614 0.1435995 -0.058408402
C 0.81197286 2.0120409 0.8163246
N 0.780859 3.0703692 1.275717
H 0.046037138 -1.3605797 -1.5465056
H -1.4442157 -1.7923963 -0.6849937
H 0.13778335 -2.0558226 0.07365287
H -1.0102198 0.0074563944 1.0163549
H -1.1061796 0.69585824 -0.58809423
