11

C 1.81642560 1.93223318 0.09779875
C -0.04590499 0.97959484 -0.77357908
C -0.86547220 -0.24528738 -0.55156807
O 0.98264807 0.92613081 0.11934933
C -0.49264737 -1.25830046 0.52588026
N 2.60436298 2.77642263 0.14853800
H -0.49907854 -0.80051612 1.51969658
H -0.91015272 -0.70272018 -1.55253828
H 0.50418208 -1.67647023 0.35230768
H -1.21131600 -2.08313393 0.52741729
H -1.88304680 0.15204701 -0.41330235
