13

C 0.082413115 -0.61532336 -0.053449642
N 0.5597196 0.67981124 0.018067246
C 0.2883031 1.5918136 -1.0878779
O 0.27369875 -1.1784422 -1.2791737
C -0.4576546 -1.2618412 0.98480326
O -0.7309268 -0.57050025 2.1585565
H -0.78003883 1.8283875 -1.2039658
H 0.654539 1.1535304 -2.017432
H 0.32550535 1.0670276 0.9218342
H -0.7427108 -2.311097 0.93583655
H -0.19647793 -2.0201027 -1.3031446
H 0.8380143 2.519188 -0.90740097
H -0.114384286 -0.8824512 2.8333464
