13

C 0.58447003 -1.5835304 -1.1660031
N 0.22856644 -0.6445332 -0.12590504
C -0.052251767 0.659578 -0.37861362
O -0.075947836 1.1701908 -1.4845073
C -0.3359152 1.4764309 0.8779837
O -0.56619924 0.6952663 2.0382433
H -0.111098036 -2.428779 -1.1838076
H 0.53561795 -1.05853 -2.1209602
H 1.6010977 -1.9636053 -1.0210941
H 0.26966643 -0.9117225 0.8472642
H -1.166285 2.1565988 0.65054095
H 0.5485539 2.089348 1.0824702
H -1.4602753 0.34328735 1.9843882
