11

N 0.28845057 -0.15329553 -1.8477985
C 0.826616 -0.14591716 0.43683463
C -0.9090962 0.10830455 -1.4659986
C -0.5225495 0.14995405 0.90319926
C -1.4066404 0.27732378 -0.10454911
N 1.5417418 -0.23175463 1.5162843
O 1.2454425 -0.2933946 -0.798683
H 2.5372157 -0.42589846 1.5480151
H -1.5830083 0.20044102 -2.3157685
H -2.462891 0.49729854 0.02706149
H 0.44471854 0.016938426 2.1014025
