9

O -0.64402491 -1.76624441 -1.10803813
C 0.52509632 1.08224903 0.01791521
N 0.94292635 -0.27966292 0.08249183
N -0.26225869 1.60609608 0.85443354
C -0.05454894 -1.21976769 -0.07713227
N 0.05840985 -1.16497152 1.15827359
H 1.04438107 1.58885232 -0.80417667
H -0.35603475 2.60385540 0.66773192
H -1.25394647 -2.45040619 -0.79149881
