12

N 0.28053250 0.05734627 -0.88131727
C -0.64407471 -0.92898956 -0.85079626
C -0.52860989 -0.19059528 1.13669802
N -1.16672048 -1.11951720 0.32434518
C 0.36223992 0.55184044 0.41781520
O -0.93241886 -1.59358580 -1.98251741
N 1.22300856 1.62571733 0.69589124
H 0.74424407 0.43004997 -1.69261462
H -1.60790792 -2.24143961 -1.74570151
H 0.86235623 2.20532871 1.44200816
H -0.75169789 -0.11970067 2.19176876
H 2.15904805 1.32354549 0.94442042
