10

N -0.1635712 0.96070015 -0.74365044
C -0.4798115 -1.0568962 0.30626544
N -1.0865209 -0.04992237 -0.45977354
O -0.9747321 -2.1427786 0.5244978
C 0.9150056 0.71627307 0.09331063
C 0.8090378 -0.47611985 0.70647174
H 1.5245283 -0.96743715 1.3468581
H 1.700629 1.4584539 0.14895947
H -1.673107 -0.32875547 -1.231746
H -0.57145786 1.8864825 -0.69119346
