10

N -0.32122964 -0.99947816 -1.5086695
C -0.075170346 -0.44279727 -0.268758
N -0.03354348 -1.1764343 0.81276596
O 0.31345057 -0.30798742 1.837292
C 0.45251462 0.92147934 1.335169
C 0.22535461 0.9307757 0.004612231
H -0.8835444 -0.42569795 -2.1181622
H -0.6748267 -1.9462389 -1.4511912
H 0.7232518 1.690216 2.0450006
H 0.2737429 1.7561629 -0.6880589
