9

N -0.85266304 -0.55608726 0.33992425
C 1.3541621 -0.1971185 0.36701626
C -0.6550226 0.6091803 -0.3165319
C 0.69582283 0.8291041 -0.38356012
N 0.3313347 -1.0453343 0.8122463
H 1.1609896 -1.4998589 0.10831738
H 1.1832601 1.6573886 -0.87925136
H -1.7189025 -0.98549753 0.6215815
H -1.4989812 1.1882236 -0.6697422
