10

N -0.8242893 0.87290543 1.3553433
C -0.17279847 0.17838825 0.34980887
C 0.34946612 -1.0670998 0.21075957
N 0.98683864 -1.1477603 -1.0257068
C 0.8123832 0.009280752 -1.5521325
O 0.1134439 0.8827118 -0.77382797
H -1.5031484 1.5355924 1.0059127
H -1.233416 0.26463532 2.049845
H 0.33090413 -1.9023027 0.8943399
H 1.1406159 0.37364843 -2.5143418
