10

N -0.8489413 -0.8055748 -1.3655014
C 0.44855687 0.5629256 1.6099515
C -0.25790313 -0.3036691 -0.24817376
N 1.552306 0.69711274 1.1007538
C 0.7132182 0.68001246 -0.20036408
O -0.62428105 -0.72665936 0.9194658
H -1.5102918 -1.5514605 -1.2056884
H -0.12899794 0.86115813 2.4804976
H -0.28978682 -0.886399 -2.197696
H 0.94612086 1.4725538 -0.89324516
