11

C -1.4722675 0.79356116 -0.4507645
N -0.48034635 -0.08708857 0.1283949
C 0.8379449 0.02701415 -0.122654095
O 1.3835472 0.8473023 -0.83851755
C 1.678034 -1.0230163 0.6073385
O 1.1987435 -1.858587 1.3306363
H -0.95307714 1.5158615 -1.082786
H -2.1830373 0.22730821 -1.059711
H -2.0180376 1.3286285 0.33371904
H -0.75132334 -0.83526164 0.7504379
H 2.7598193 -0.9357226 0.40390643
