11

C 0.09887025 0.64815074 -0.083466746
N 0.60391104 -0.39544457 0.5207663
C -0.10450452 1.9829167 -1.0636384
O -1.0273098 0.73320645 -0.6286309
C -0.13817036 -1.642105 0.7105678
O 0.36530554 2.0657759 -2.1650708
H -0.34343573 -1.8041601 1.771018
H 1.5575837 -0.33178195 0.83630335
H -0.38114572 2.7957993 -0.38149223
H -1.0808238 -1.5762746 0.16390012
H 0.44971913 -2.4760826 0.31974354
