9

O 0.18150879 -0.76317132 1.98713892
C 1.46055946 1.65772625 -3.16209968
C 0.38210852 0.50538878 -1.21890014
C -0.13007997 -0.04963331 -0.28685042
C -0.71256658 -0.69302835 0.90004962
N 0.94745626 1.11456603 -2.24901629
H -1.64279618 -0.17045814 1.16916959
H 0.49172839 0.12669066 2.19493551
H -0.97791845 -1.72808067 0.66557273
