9

O 1.443425 1.552985 -0.26240954
C 0.95392567 0.37633264 -0.8640187
C -1.1107051 -0.6497432 0.48094726
C -0.19412346 -0.20294009 -0.15099287
C -3.0277243 -1.5716205 1.8008496
N -2.1243064 -1.141664 1.1755555
H 1.6683886 1.3640622 0.6568127
H 1.7378718 -0.38978887 -0.96055144
H 0.6532479 0.6623767 -1.8761926
