12

C -0.32547150 -1.13850569 1.74308114
C -0.76288318 0.18683082 -0.12763194
N 0.46604894 0.21992180 -0.40513325
C 0.84535189 0.96749947 -1.59055656
O -1.27550078 -0.46237833 0.92354504
H 0.21947230 -1.88938105 1.16232819
H -0.90998449 -1.61210495 2.53351480
H 0.39380562 -0.42832017 2.16225373
H 0.00062672 1.43205409 -2.12187526
H 1.36671664 0.29925869 -2.28279075
H -1.56913822 0.67051057 -0.69157750
H 1.55095602 1.75461486 -1.30515783
