12

C -0.2315329 -0.4153387 1.7158167
C -0.42477128 -0.2861798 -1.6647567
N -0.033447154 0.05408555 -0.3132596
C 0.8377435 0.9402237 0.02826052
O 1.052777 1.0734906 1.2646092
H 1.3780099 1.5551001 -0.70165
H -1.5046471 -0.1487139 -1.7949774
H -1.2159762 -0.7432856 1.3974751
H 0.09189359 0.33827615 -2.4049509
H -0.2670899 0.17395835 2.6270144
H -0.19286902 -1.3361139 -1.8799139
H 0.5099096 -1.2055025 1.7263324
