11

C 0.22843291 1.1291176 0.49222597
C 0.15560399 -0.5454668 -1.3168565
N -0.9554006 -0.92798465 0.8604645
C -0.15879667 -0.054558747 0.06886571
N 0.4152041 2.2994595 0.83509004
H -1.229019 -0.5078414 1.7396739
H 0.7232495 0.19620164 -1.8853358
H 0.744373 -1.4709288 -1.2747693
H -0.47185755 -1.8024999 1.049839
H -0.7786048 -0.7651197 -1.8430856
H 1.326815 2.4496207 1.2738883
