11

C -0.5261929 1.0402946 0.5432048
C -0.07520309 -0.04894113 -0.4311649
N 1.3777581 -0.14256082 -0.44896808
C -0.718719 -1.3477643 -0.102260955
N -1.157179 -2.3816001 0.16874212
H -1.613737 1.1594253 0.52807766
H -0.22514066 0.79180855 1.5666839
H -0.05548737 1.9857157 0.26042387
H -0.40139174 0.22458856 -1.4408214
H 1.680403 -0.8521354 -1.1088005
H 1.7148899 -0.42883107 0.4648836
