11

N 0.22384822 -0.72960957 0.63640165
C 0.59633378 0.03741383 -0.53261881
C -0.76279553 0.49002924 -1.01041681
C -1.10687728 -0.68835666 0.77091161
C -1.79959660 0.06830267 -0.23892002
N 1.47540327 1.22682502 -0.25680616
O 1.72690006 1.37613518 0.89856958
H 1.14611872 -0.56468292 -1.26281874
H -0.82758714 1.09346465 -1.91218122
H -1.56120652 -1.24575949 1.58578683
H 0.88945872 -1.06376190 1.32209195
