11

N 0.96554023 0.4648167 -2.1438484
C 0.5782178 0.24236012 -0.95916533
C -0.79957294 -0.120027795 -0.6434949
C -1.1509932 -0.3407736 0.6266059
C -0.12373685 -0.20953107 1.6425605
N 1.0978254 0.10279074 1.4169362
O 1.462923 0.33516857 0.100985795
H 1.9575738 0.7028598 -2.166842
H -1.4800591 -0.19192863 -1.4835615
H -2.1618402 -0.60962665 0.9171645
H -0.34587824 -0.37610814 2.6926591
