10

N -1.0507609 0.26359078 0.36033016
C -0.6594999 -0.9685576 -0.10137222
C 0.66943747 -0.8864453 -0.43734467
C 1.0947727 0.44491944 -0.16874039
C 0.01141081 1.1300694 0.32291347
H -1.976131 0.49430552 0.6809104
H -1.3574573 -1.7921354 -0.1492051
H 1.2768695 -1.6886644 -0.8341298
H 2.0872285 0.8476635 -0.31965464
H -0.09586994 2.155254 0.64629275
