10

N -0.94417342 0.09596807 1.14880580
C -0.59958719 0.23098091 -0.27172692
C 0.98557607 -1.57774075 -1.38379901
C 0.27324847 -0.74691450 -0.88721940
C -0.04501450 1.16409985 0.74847734
H -1.42320074 0.57763535 -0.89196151
H -0.42846957 -0.67457713 1.56275657
H 1.62079521 -2.31249860 -1.82521184
H 1.01316646 1.07345172 0.97773117
H -0.45234084 2.16959502 0.82214777
