11

N -0.9101715 1.105963 -0.9248878
C 0.3128667 -0.13693286 0.515407
C -0.3398115 -1.394548 0.32350865
N -0.25821096 1.1402085 0.12094193
C -1.6857865 1.141657 -1.8197435
N 0.56131136 -1.1644236 -0.5492081
N 1.2454087 0.09165166 1.5498073
H -1.0373272 -2.187706 0.56193507
H 1.8741584 0.84959364 1.3153385
H -1.5297803 1.3000454 -2.8734148
H 1.7673429 -0.7455086 1.7803158
