11

N 0.9909788 -0.84782857 -1.5267491
C 0.25026664 -0.22303937 -0.55583143
C 0.5886786 -0.27723625 0.81419575
N -0.120272994 0.38213485 1.7043997
C -1.1524879 1.0874329 1.2087165
N -1.5070384 1.1625541 -0.063634366
N -0.7962777 0.48667237 -0.96337485
H 1.5263547 -1.6600069 -1.2671602
H 0.5408932 -0.9029089 -2.4290686
H 1.4373817 -0.85924405 1.1680857
H -1.7584769 1.6514696 1.9104207
