12

O 0.27724952 -1.7783592 1.0315504
C -0.01507718 0.8224003 -1.0798644
C -0.3402842 -1.4016389 -0.08047049
O 1.3780879 0.87368536 -0.8710782
C -0.6695101 0.052701246 0.076997265
O -0.26423547 0.685956 1.2753576
H -0.19615707 0.30282152 -2.0218923
H 0.47942325 -2.719881 0.9544155
H 1.4828324 1.2218474 0.026001574
H -0.45677525 1.8279376 -1.1263473
H -1.7642657 0.113879204 -0.043367524
H 0.08871185 -0.0013495208 1.8586981
