12

O 1.39250810 1.19762479 0.21873659
C 0.25748899 1.18134774 -0.61708483
C -0.63546011 -0.00700260 -0.23041524
O -0.90887227 0.11507270 1.15221631
C 0.03275487 -1.26704235 -0.69310263
O 0.19937401 -2.02972349 0.37947002
H 0.59873033 1.07051350 -1.64734631
H -0.32956812 2.10604675 -0.52403219
H 1.03909417 1.16610107 1.11931706
H -0.69083633 -0.73329749 1.56449676
H -1.56721151 0.05603949 -0.81742909
H 0.61199787 -2.85568010 0.09517347
