11

N -0.50740500 -0.54087837 1.67109326
C 0.26409777 1.02561435 -0.16472570
C -0.14661598 -0.31721182 0.38954750
N -0.06055569 -1.24227435 -0.51642956
C 0.39185667 -0.53702257 -1.64652101
N 0.59578602 0.72435265 -1.55081396
H 1.13418864 1.43185397 0.36219034
H -0.89137696 -1.45076540 1.88284960
H -0.79171354 0.22704398 2.25700251
H -0.54072703 1.76635315 -0.11416666
H 0.55246526 -1.08706553 -2.57002601
