11

N -0.1658042 1.4988947 0.488943
C -0.79470456 0.4725983 0.12415746
C 1.4601474 -0.56842476 0.062143516
N -2.1646068 0.30525407 0.04717288
C 0.1142819 -0.5461871 -0.37754256
N 2.0430272 0.49633986 0.49038303
H -2.694824 1.163956 -0.0062197205
H -0.20145154 -1.1225028 -1.2445383
H 1.9556605 -1.5464805 0.030315725
H 2.9100263 0.26371783 0.97713345
H -2.461752 -0.4171657 -0.59194845
