10

O -0.80217066 0.39850574 -1.17746201
C 0.35336966 0.00390632 -0.40446493
C -1.65567584 -0.48401281 -1.60649807
C 0.64733746 0.89890643 0.81431736
O -0.21536944 -1.36417394 1.68821364
C 0.15454287 -0.47996064 0.97447784
H -1.25228045 -1.47982360 -1.27361648
H 1.68112903 1.16352359 1.01822829
H -0.08562189 1.68613569 0.99005232
H 1.17473916 -0.34300674 -1.02324815
