10

O 1.7098441 -0.3236848 1.3149453
C 0.9253193 0.1740132 0.56334394
C -0.039216395 -0.020548936 -0.5352729
C 0.17290735 1.3589356 0.11656946
O -1.3134787 -0.6361716 -0.24240614
C -1.3953803 -1.8989319 0.0577781
H -0.6339089 1.6820729 0.77419543
H 0.28039256 -0.18234064 -1.5597546
H 0.6379652 2.140432 -0.47783065
H -0.34444427 -2.2937758 -0.011568056
