9

O -1.1579317 -1.2879772 -1.0799277
C -0.37993827 -0.4741361 -0.34633932
C 0.47713286 -0.7924962 0.65173006
O 1.0314716 0.3953715 1.0817112
C 0.4709078 1.3336941 0.3154705
N -0.37721378 0.8871639 -0.5546992
H -1.634322 -0.7259757 -1.705799
H 0.7992639 -1.6925206 1.1480774
H 0.77062976 2.3568761 0.48977607
