9

O -0.55591065 1.0138656 1.2605606
C 0.26408005 -0.64969385 0.046708703
C -0.33859047 -0.27968743 1.3989999
O -0.33263594 -1.775015 -0.49542883
C -0.2540065 1.437582 -0.06984301
N 0.18365148 0.54194325 -0.8243824
H 0.13503309 -1.9892092 -1.311555
H 1.3436939 -0.7851153 0.2596193
H -0.445315 2.4853299 -0.26467913
