9

O 0.33676815 0.39125928 -1.9189137
C 0.25639996 -1.3867176 -0.19565898
C 0.08373936 0.17365322 1.4183218
O 0.19098848 -1.1636366 1.1663713
C 0.050325345 -0.03281074 -0.673898
N 2.5435362e-05 0.9210631 0.3912977
H 0.007171153 1.2960155 -2.0026827
H -0.9846598 -0.668277 -0.6444409
H 0.05924189 0.46945077 2.4596033
