9

O -1.1794609 -0.51808906 1.0433408
C 0.64135224 -0.19538221 -0.0768072
C -1.3954581 0.3069606 -0.016680136
O 1.7916005 -0.45996034 -0.73072195
C 0.13239613 -0.9726218 1.0340766
N -0.3766315 0.5554837 -0.7394573
H 1.9337314 0.25258934 -1.368117
H 0.85381144 0.3424038 0.99030566
H -2.4013414 0.688616 -0.1359393
