12

O 0.40551832 1.1747891 -2.169938
C 0.75279623 1.2908537 -0.8136714
C 0.20903473 0.16971086 0.020011326
N -0.7532184 -0.61078304 -0.42859575
N -0.9813015 -1.418402 0.6273209
C -0.16313425 -1.0942999 1.6428306
N 0.6055787 -0.08780267 1.2977369
H -0.48344964 0.8017844 -2.2078433
H 0.40248814 2.2403882 -0.3810939
H 1.8457859 1.2903799 -0.74953806
H -1.6752806 -2.1452942 0.5716272
H -0.16481747 -1.611324 2.5911534
