12

O -2.06896759 -2.28946851 -1.03014455
C 1.86119702 1.63013289 0.45219435
C 0.65063607 -0.19783426 -0.29039298
N -0.32498882 -0.75914063 -0.73329118
N 1.73758558 0.30510032 0.02113207
C -1.38239909 -1.52467044 -0.09544531
N 0.87426872 2.34903902 0.79291049
H -2.44901425 -1.69558036 -1.68962558
H 1.20145922 3.27805625 1.06039845
H 2.90884479 1.94991114 0.46553311
H -2.04720783 -0.81677488 0.41791358
H -0.96141367 -2.22877020 0.62881747
