10

N -0.6567936 -1.2202177 1.1891146
C -0.18011351 -0.30755654 0.2550584
C -0.7809797 0.73036104 -0.3778068
O 0.14130563 1.2669874 -1.2483076
C 1.2324867 0.5164923 -1.0816919
N 1.118885 -0.4282626 -0.2099987
H -1.3189012 -0.8376284 1.8493546
H 0.10288125 -1.6840663 1.6648542
H -1.7539196 1.1935276 -0.3588916
H 2.0951488 0.77036303 -1.6816851
