10

N 0.1827031 -0.6833719 -1.3853993
C -0.3017728 -1.0509561 2.0333502
C 0.010305513 0.0318729 -0.19254619
O -0.12691398 2.202174 0.75852215
C -0.007465165 1.5036036 -0.21967131
N -0.05293341 -0.5533018 0.9448935
H -0.45186147 -0.3815235 -2.1155593
H 0.09585246 1.9244025 -1.2426274
H 0.107055224 -1.6833817 -1.257089
H 0.54503053 -1.3095181 2.676127
