10

N -0.40293419 -0.86597767 0.53804762
C -0.94308919 -1.88718011 0.93766868
C -0.74830666 1.04227010 -0.81415306
O -1.94159889 0.89613728 -0.93175377
C 0.13171846 0.12603518 -0.07043794
N 1.50173396 0.40464457 0.02768923
H 2.01758128 -0.32660701 0.49819789
H -1.33481867 -1.88497661 1.95925341
H -0.20518593 1.89629882 -1.27223625
H 1.92489961 0.59935529 -0.87227569
