11

N 1.14921 0.95783585 -0.8486708
C -0.4412928 -0.0961692 0.45361772
C -0.06361702 1.1212226 -0.17752352
N 0.57184964 -0.9705483 0.10533145
C 1.4814298 -0.28067678 -0.6659841
N -1.6489581 -0.531963 0.9498934
H -2.1057699 0.25906923 1.4118639
H -0.5514541 2.08196 -0.08055751
H 0.53930396 -1.9562747 0.31115013
H 2.3740041 -0.7534247 -1.055933
H -1.3047057 0.16896877 -0.40318763
