11

N 0.68402442 -0.70828212 0.72939799
C -0.09504927 0.32363186 0.32448684
C -0.27834570 0.15698394 -1.03274676
N -0.50064054 1.31731157 1.22070048
C 0.45094953 -1.01359154 -1.33913254
N 1.02799930 -1.54135208 -0.27565486
H -1.07486191 0.96809013 1.97795463
H -0.98706816 2.06527465 0.74306660
H -0.85581779 0.78389641 -1.69641077
H 0.56593899 -1.49338362 -2.30200456
H 1.06287107 -0.85857916 1.65034295
