11

N -0.2866601 0.53801847 2.0070462
C -0.3545412 0.52390444 -1.0912645
C 0.8926774 0.6877506 2.062519
C -0.50723195 -0.7329625 -0.22589016
C 0.7344412 -0.17081898 0.4784044
O 0.9444267 0.7698217 -0.5009604
H -1.0450312 1.3317882 -0.83541715
H -1.4185593 -0.8576725 0.3530604
H -0.25611576 -1.650895 -0.76636565
H 1.5746886 -0.83140874 0.6907221
H -0.27809438 0.39247432 -2.1718545
