11

N 0.7385198 1.735438 2.341408
C 0.25068292 1.3223592 1.3800704
C -0.34521568 0.78193086 0.14399984
C 0.5795916 -0.118676364 -0.6995093
C -0.40362868 -1.2305651 -0.31142917
O -1.241599 -0.29953104 0.3994656
H -0.8324278 1.6025443 -0.3931305
H 0.5950072 0.14229444 -1.75901
H 1.5989581 -0.22546332 -0.32537502
H -0.9386142 -1.7105707 -1.1348304
H -0.0012740791 -1.9997603 0.35834014
