11

N -0.1768524 0.39662045 1.8292462
C -0.58931255 -0.528967 -0.4556309
C 0.8142849 -0.2691968 -1.0136322
C -0.075833164 0.14210793 2.9713862
C -0.29211816 0.6860289 0.4380248
O 0.9698708 0.89065367 -0.17513758
H 1.5670499 -1.0312512 -0.7858474
H -0.72580105 -1.4662639 0.08500092
H -1.411331 -0.37021342 -1.1559374
H -0.94631517 1.5574185 0.3364857
H 0.86635804 -0.006937181 -2.0739586
