17

C -1.4769427 -1.9279064 0.996992
N 0.7597977 0.6539445 -0.34320512
C 2.1123602 0.3200793 0.015774941
O -1.3966776 0.4755448 -0.3835131
N -0.27636322 -1.1481087 0.77938753
C -0.51583123 2.0332804 -1.2537274
C -0.2929469 -0.020758666 0.007379517
H -0.50194174 2.7277298 -0.4228345
H 2.4050574 -0.6822454 -0.32883066
H 2.3021586 0.37845072 1.0978501
H 0.6059031 -1.6270534 0.83372045
H 0.32868603 2.1465468 -1.9280874
H -2.2961106 -1.241782 1.2210993
H -1.3300256 -2.5933013 1.8498048
H -1.7610034 -2.5244963 0.12098498
H 2.792328 1.0310234 -0.47087753
H -1.4584478 1.999052 -1.7919178
