9

O -0.34366648 1.18197882 -1.62396600
C -0.80127118 -0.76440020 -0.23772319
N 0.82052434 0.65456264 0.36713842
O -0.23019620 -1.21077437 0.93120268
C 0.71775185 -0.31521567 1.21721076
C -0.14989510 0.37509852 -0.56926997
H -1.60404780 -1.34967653 -0.65429521
H 1.29920736 -0.47768517 2.11260363
H 0.29159299 1.90611179 -1.54290099
