9

O -0.87290424 0.13544965 1.2671996
C -0.039960183 -0.8993735 1.13387
N 0.6390091 -0.9094507 0.032709565
O 0.714571 0.5513054 -1.8269912
C -0.7100199 0.87443995 0.11866738
C 0.21617709 0.22450621 -0.62458
H -0.00881297 -1.6176353 1.9396895
H -1.2984972 1.7709699 0.016395964
H 1.3604372 -0.13021168 -2.0569608
