11

N -0.9111709 1.632051 1.5720247
C 0.17660734 -0.38695425 -1.3914742
C 0.6405405 -1.076704 -0.13714717
C -0.5044919 0.7381947 -1.4286604
C -0.4520258 0.80672514 0.75534505
O 0.22862464 -0.30887666 0.9869663
H -0.7190265 1.3866575 2.5438018
H -0.81910855 1.3137491 -0.4181079
H 1.7319807 -1.1650157 -0.102142036
H 0.42504534 -0.86393374 -2.3407183
H 0.20302506 -2.0758932 -0.039887875
