11

N 1.3465397 0.5693075 1.8390775
C 0.63927084 0.26577857 0.8349781
C -0.767483 -0.17532164 0.85548437
C -1.1556154 -0.3953672 -0.39742708
C -0.012870754 -0.10809563 -1.3253226
O 1.0562726 0.293793 -0.46777922
H 2.285092 0.8437837 1.555606
H -1.3320402 -0.281398 1.7716665
H -2.1292958 -0.7276089 -0.7396391
H -0.23040318 0.70371574 -2.0286992
H 0.30053318 -0.9885871 -1.897945
