12

C -2.083007 -0.5723778 -0.23867367
C 1.5972371 0.8569276 0.35168114
N 1.5456948 -0.79467654 -0.20163265
N -0.8076299 -0.5847801 0.2740893
C 0.3566757 -0.37902892 -0.4856522
O -3.075244 -0.8359126 0.4023317
H -0.7185819 -0.84624577 1.2466067
H 2.4867394 0.64615625 0.93560815
H 0.82654697 1.2893977 1.0057522
H 1.8212476 1.5159794 -0.48601514
H 0.14767489 0.00084914645 -1.4953957
H -2.097354 -0.29628837 -1.3087001
