15

N -1.4589611 2.0659773 0.7060574
C 0.5641793 -1.0075636 0.5395316
O 1.5744684 -0.5904217 -1.6665269
N -0.51835847 -0.04194344 0.72903466
C -0.48390928 1.2225189 0.20761399
C 0.77178353 -1.4516704 -0.91116154
O 0.34356102 1.5994673 -0.6136874
H 0.29230922 -1.8811427 1.141288
H -1.5396516 2.9083207 0.1546881
H 1.5176064 -0.61724526 0.91984904
H 1.2526355 0.31212035 -1.4965048
H 1.287922 -2.4181616 -0.89656335
H -2.3448665 1.6549517 0.96383345
H -1.0391325 -0.13932708 1.5889875
H -0.21958587 -1.6158805 -1.3664396
