10

O 1.75694492 0.33756601 -0.55869029
C -0.32739312 0.56314593 0.98456261
C -1.07128522 -0.52487468 0.76699126
C 0.43493868 0.20914517 -0.27316479
N -0.48753995 0.11728916 -1.36912114
N -0.31289209 -1.03532815 -0.38491009
H -1.98504368 -0.96692818 1.14213216
H 2.26670160 0.06812270 0.21480048
H 0.06549874 -0.17763784 -2.17659350
H -0.33992973 1.40949983 1.65399353
