10

O -1.1437348 1.4006321 0.24481528
C -0.17008889 0.5961329 -0.16787027
C 0.86053246 0.0053275 0.7116627
C 0.52280045 -1.2406317 0.27241257
N -0.10503264 0.21835822 -1.4528409
N -0.44311327 -1.143097 -0.71418494
H 1.6897769 0.4619696 1.2305477
H -0.9604315 0.47101697 -1.9391853
H -1.0955619 1.4564195 1.2107109
H 0.8448532 -2.2261279 0.60393256
