10

O 1.7768773 0.59355545 -0.05779418
C 0.47680545 0.21859758 -0.18001124
C -0.7560249 0.7388661 0.5255343
C -1.2101033 -0.5174402 0.5285136
N 0.077927224 -0.45566162 -1.3828393
N -0.0024818121 -1.1477383 -0.025538974
H 0.9359712 -0.83454853 -1.7891035
H -2.1335263 -1.0421181 0.73611796
H -1.1375983 1.7188495 0.76769984
H 1.9721537 0.7276382 0.87742156
