10

C -0.9321072 0.37779015 2.3678298
C -0.47505885 0.209411 1.2671416
C 0.06674042 0.0062005855 -0.033723094
C 1.3399769 0.12009475 -0.5503774
N 1.3046361 -0.19437051 -1.86896
N 0.08823945 -0.49744442 -2.2018785
N -0.6648862 -0.3806717 -1.1104838
H -1.3297031 0.52778995 3.3487434
H 2.2548301 0.40556702 -0.05387307
H -1.6526678 -0.57436687 -1.1644189
