11

O -1.05382897 -1.79739513 -0.19637897
C -0.12808058 -1.00096607 -0.07054018
C 0.00567090 0.17427475 0.73747233
N 1.01081677 -0.71190942 -0.85565304
C 0.99299270 0.67807079 -0.33822427
O -1.50401499 0.72897233 0.67710661
H -1.72870523 0.90184363 1.60614457
H 1.84205940 -1.28049361 -0.91359471
H 0.58671181 1.35261427 -1.10105217
H -1.96429368 -0.10931077 0.41519464
H 1.94067191 1.06429900 0.03952520
