11

O -1.502256 -1.0428504 0.38204795
C -0.16605568 -0.7721066 0.06727695
C 0.029245758 0.2329508 -1.0927411
N 0.76038116 1.0792825 -0.14745466
C 0.50589806 0.3026258 0.9473384
O 0.67962795 0.44210568 2.1313472
H -1.5642079 -1.1241146 1.3423662
H 0.43614495 -1.6841711 -0.037700262
H 0.6293391 -0.11329899 -1.9369876
H -0.91861945 0.6574519 -1.4330653
H 1.1105021 2.0221248 -0.22242776
