9

O -0.15283082 1.3944249 -1.6514634
C -0.11444806 0.4748018 -0.6779552
N 0.03372343 -0.7866394 -0.94389683
O 0.039621416 -1.4672153 0.2369235
C -0.05679119 -0.4994143 1.2391102
C -0.28302145 0.8161167 0.73857737
H -0.07466202 0.94230795 -2.5048242
H 0.96342146 0.03178954 1.3625677
H -0.35501277 -0.9061719 2.200961
