11

C 0.9385072 1.0912399 -0.76759964
N 0.08744517 0.13787258 -0.08626923
C 0.3782615 -1.0684215 0.42520586
N -0.69857645 -1.6124476 0.9596916
C -1.6404526 -0.66425353 0.73560476
N -1.2177925 0.41121668 0.1066148
H 0.5758712 1.2462682 -1.7861269
H 0.92558706 2.0423052 -0.23039062
H 1.9567153 0.69827616 -0.79647005
H 1.3657792 -1.5102253 0.39166594
H -2.671345 -0.7718307 1.0480735
