11

C 0.44312656 0.8443093 -2.0877476
N -0.82569957 0.52959716 -1.5796534
C 0.31101355 -0.75677603 1.6508031
N -0.03506194 1.935642 -1.7439787
C -0.7666184 0.062469617 -0.2374226
N 0.33705777 -0.2157701 0.3041563
H -1.7552975 -0.06370084 0.21707907
H -0.70353055 -0.875655 2.055688
H 1.3016342 0.3632306 -2.5368896
H 0.88207555 -0.09301277 2.308631
H 0.8113004 -1.730334 1.6493349
