11

C 0.6318403 0.22039205 -0.32426813
N 1.7020859 -0.19641751 0.38606727
C -1.623592 0.633557 -0.82736206
N -0.55965567 0.31977606 0.10210959
C 1.6413662 -1.0738053 1.4422073
N 0.5733963 -0.8154614 2.0321891
H 0.93278974 0.5037554 -1.340705
H -2.282046 -0.23707256 -0.93043983
H -1.2643617 0.92338157 -1.825513
H 2.4715016 -1.7294713 1.7011088
H -2.2233245 1.451366 -0.4153941
