11

C -0.99009197 -0.74572813 -0.32503937
C 1.53131443 0.44628487 0.27735776
O -0.82710998 0.13663218 0.75722616
C 0.44054268 0.56852341 1.02763765
O -0.83816214 -0.13546127 -1.56671497
H -1.99760757 -1.15830938 -0.19301832
H -1.53225301 0.53241599 -1.65872907
H -0.23784979 -1.53901539 -0.27081752
H 1.52530606 0.01405952 -0.71537117
H 0.45650406 1.05548264 1.99989135
H 2.46940696 0.82511555 0.66757746
