11

C 0.9299093 -0.4028354 1.0021067
C -0.4139004 -0.013731409 -1.2656356
O 0.21269636 -1.3321455 0.43021962
C -0.67945176 0.8137826 -0.15728772
O 0.3427686 1.0388263 0.68124676
H 1.9674081 -0.28865495 0.6466199
H -1.2400998 -0.3478409 -1.8887222
H 0.5842828 -0.2975187 -1.5676596
H 0.89745337 -0.3953003 2.0988865
H -1.5173975 1.5123242 -0.14564171
H -1.0836692 -0.286906 0.16586755
