12

O 0.25324268 0.10722201 -2.72138771
N 0.08811089 0.56223264 1.45128473
C -0.12436026 1.16304765 0.10401416
C 0.07497460 -0.82082413 0.90799181
N 0.25092261 -0.61096299 -1.67235834
C 0.04553591 -0.20761808 -0.46589750
H 0.63596687 1.89747985 -0.18070020
H -0.68387111 0.73879150 2.08337546
H 0.96528540 -1.40387354 1.16991369
H -0.81901390 -1.40470026 1.16594510
H -1.12057543 1.59610491 -0.05194989
H 0.43378160 -1.61689958 -1.79023124
