11

O -1.9886297 0.15241605 1.550712
C -0.70994776 1.0919319 -0.35021228
C 1.2472835 -0.4164411 0.15341614
N 0.32574585 0.031367425 -0.872923
C -1.1715752 0.16548364 0.66212785
C -0.18490882 -0.90219504 0.12935182
H -0.34535894 2.1093948 -0.2334855
H 2.0162125 -1.1172875 -0.16191718
H -0.39410543 -1.9402359 -0.10950714
H -0.33745587 0.47480583 -1.6342392
H 1.5427397 0.35075986 0.86667645
