11

N 1.30187046 1.35445114 1.40306332
C 0.04175104 -1.04655926 -0.81941777
C -1.17124973 -0.22981360 -0.47709484
C -0.82375342 0.72991021 0.37237501
C 0.62400299 0.61074115 0.64230721
O 1.10497133 -0.44826550 -0.07674864
H 0.28806566 -1.01066610 -1.88646341
H -0.05455915 -2.09626418 -0.51983487
H -2.15482684 -0.43008202 -0.88588841
H -1.43677657 1.49622287 0.82729473
H 2.28050443 1.07032544 1.42040772
