11

N 1.0434372 -1.0222355 -1.0086249
C -1.1694502 0.14090765 -0.04054552
C 0.90321106 0.6050563 0.72733694
C 0.7953449 0.2350436 -0.65925187
C -0.3950448 0.47869414 1.1306199
O -0.42444518 0.62921405 -1.1349792
H -0.24076855 -1.2209692 -0.39415964
H 1.8117527 0.6100153 1.3117359
H -0.7700213 0.44214952 2.1459167
H 0.6880407 -1.1933202 -1.9477988
H -2.2420561 0.29544443 -0.13024946
