12

N -0.9222901 2.0775137 1.7929103
C -0.8555997 1.2766353 0.9630724
C -0.75977695 0.22425342 -0.066858985
C 0.39358544 0.47388282 -1.0841911
N 1.485215 -0.4134535 -0.6814465
C 1.0058997 -1.1962517 0.19560578
N -0.34644538 -1.053835 0.5085528
H -1.7323194 0.13710585 -0.5603755
H 0.07084012 0.21353117 -2.09694
H 0.7270965 1.5142776 -1.0921165
H 1.5750893 -1.9921883 0.6693166
H -0.64129466 -1.2614712 1.4524709
