10

O -0.66468596 -1.9937506 -0.29710686
C -0.58394676 -0.84365284 0.33963633
C -1.0176466 0.13004526 1.0640256
N 1.0037333 0.5630961 -1.4684161
C 1.0034205 0.86288756 -0.2373683
N 0.50354886 -0.02011091 0.7449499
H -1.5614159 0.55651665 1.8866465
H -1.5730697 -2.3196218 -0.2384217
H 1.4268503 1.7695192 0.21291213
H 1.4632114 1.2950711 -2.0068574
