10

O 0.9904348 0.5035417 -1.7958026
C 0.38075313 0.18328477 -0.6549158
C 1.149561 -0.2771984 0.43476152
N 0.56692195 -0.60108536 1.5665532
N -0.7592595 -0.49267042 1.6785632
C -1.4288384 -0.054580107 0.6279633
N -0.92133313 0.2986296 -0.56218755
H 0.30089372 0.79210734 -2.416051
H 2.2274568 -0.37906507 0.37730277
H -2.5065906 0.027035935 0.74381286
