10

O 1.7801338 0.7737084 -0.84181815
C -0.78984094 0.31623098 1.321921
C 0.6873518 0.07568057 -0.5664749
N -1.7711676 -0.23382767 0.7131453
N 0.29626715 -0.41495818 0.7379864
C -0.31346005 -0.523341 -1.2239621
N -0.8201862 -1.094761 0.011435328
H 2.3517938 0.76556575 -0.060719024
H -0.66945726 -0.69784224 -2.2255058
H -0.75143456 1.0335444 2.133992
