10

O 1.67015230 -0.54146217 -1.51307245
C -0.03182116 -1.11224493 0.23585627
C 0.75437061 -0.29977831 -0.78214599
C 0.08355409 1.01768408 -0.29782516
O -1.40495048 -0.77189025 0.01786896
C -0.61158007 0.14424382 0.74770652
H 0.18412367 -2.05584867 0.72083381
H 0.83451571 1.71002651 0.09210893
H -0.58709111 1.53081613 -0.98887254
H -0.89127358 0.37845380 1.76754134
