10

O 1.7500726 -1.1305866 1.0154241
C 0.8040911 -0.6102101 0.50203705
C 0.5071465 -0.084491566 -0.93130755
C -0.720685 0.5819502 -0.30985674
O -1.5212834 -0.46777204 0.20014973
C -0.47180447 0.026729908 1.0349642
H 0.2939638 -0.8188729 -1.7095175
H 1.2947478 0.5996402 -1.2614353
H -1.2005605 1.5199867 -0.563311
H -0.73568845 0.3836262 2.0228527
