10

O 1.9886242 -0.21332836 -1.171257
C 0.93021077 -0.16130021 -0.615942
C -0.14677094 0.9498592 -0.455618
C 0.23214017 -1.0320468 0.4179951
O -1.1230941 -1.1436095 -0.028925167
C -0.7467622 0.05183423 0.62734437
H -1.2505544 0.3218564 1.5473592
H 0.3087358 1.8772674 -0.098186
H -0.8026721 1.1487068 -1.3046582
H 0.6101428 -1.7992392 1.0818876
