10

O -1.0272644 0.8551033 1.8496091
C -0.6111272 -0.90429944 0.072634906
C -0.3273779 0.21377477 1.031171
C 0.5355239 0.836305 -0.21373613
O -0.29358667 0.9584822 -1.3055173
C 0.24431011 -0.38215125 -0.9842054
H 0.55503136 -0.4161328 1.4431949
H 0.8086696 -0.86242056 -1.7733505
H 1.454327 1.4159164 -0.18188697
H -1.3385059 -1.7145778 0.062086467
