11

O -1.8034474 0.65519214 -1.6411622
C -1.158632 0.028589286 -0.86530447
O -1.2100824 -1.3149129 -0.60753703
C -0.21743391 -1.240587 0.45692453
C -0.043369394 0.23399459 0.13761458
C 1.1266205 1.1000978 0.065596454
O 0.08701368 1.2992871 1.0224131
H 0.6290851 -1.8971809 0.25297195
H -0.66760975 -1.4594945 1.4264522
H 1.187126 1.8544339 -0.716902
H 2.0707295 0.7405805 0.46893296
