9

O -0.31017563 -1.7372692 -0.92338777
C -0.13674112 -0.54567206 -0.34307
N 0.6500935 -0.4194925 0.7348336
N -0.65632683 0.6070629 -0.6900206
C -0.13002858 1.4411976 0.2521869
N 0.6641586 0.88030744 1.1366004
H 1.175938 -1.1247604 1.2240158
H -0.3472669 2.4998753 0.28009072
H -0.909651 -1.6012491 -1.6712492
