9

O -1.56405 0.8799299 -1.5567136
C -0.76054794 0.47596323 -0.77311933
N -0.6824487 -0.86708474 -0.2594842
C 0.94439566 0.23049559 0.6829497
C 0.2840646 -1.111474 0.60483265
O 0.2375384 1.1453533 -0.19301097
H 1.9897231 0.17380506 0.3628886
H 0.9121945 0.6235546 1.7042338
H -1.3608695 -1.5505428 -0.5725766
