11

N 0.3059299 -2.3415651 -0.6816486
C 0.8169742 -0.6345601 -0.18413076
C -0.04478993 -1.4777111 -1.4371859
C -0.22644845 0.09811383 0.6094819
C -0.8276786 1.3227688 0.09623555
O 0.19061716 1.3625368 1.0922606
H 1.5229843 -1.1426907 0.47557896
H -0.7793583 -0.5133475 1.323343
H 1.3874136 0.026731353 -0.8374322
H -1.8203411 1.6141261 0.42847207
H -0.5253026 1.6855979 -0.8849743
