11

N -1.24343367 -0.87993276 1.14395689
C 0.23997476 0.93640506 -1.23363481
C 0.47294637 0.48952249 0.13668463
C -2.31534155 -0.79828745 1.60469646
C 0.06214763 -0.90063241 0.57230079
O 1.53033422 0.52909899 -0.79332171
H 0.12798920 1.99733997 -1.44262910
H 0.52623428 1.23418417 0.93215462
H -0.23960172 0.26227664 -1.94336035
H 0.07307782 -1.57648355 -0.29024222
H 0.76567261 -1.29349109 1.31339474
