11

N -1.279006 0.24438243 1.3904917
C 0.6442448 0.24869157 -0.071374685
C 0.38127688 0.20140049 -1.5067724
C -2.1358638 0.94697595 1.7647783
C -0.20580457 -0.5507191 0.89268255
O 1.4572625 -0.5243601 -0.9233961
H 1.1222565 1.1350925 0.348067
H 0.6669956 1.041496 -2.1347904
H 0.39721644 -0.8984238 1.7376516
H -0.6098141 -1.4335763 0.3845348
H -0.4387646 -0.41095942 -1.8818729
