9

N 0.61686226 0.56705079 -0.58961319
C -0.96129143 -1.15194002 0.10680473
C 0.23426824 -0.39478164 0.46080529
C 0.21052202 1.05605913 0.83409198
N -1.93901344 -1.71985665 -0.12649402
H 1.60120331 0.64821805 -0.81451846
H -0.81529248 1.42454952 0.70792812
H 0.00667305 0.59321346 -1.40291581
H 1.04606837 -1.02251284 0.82391134
