11

O 1.0340822 0.094535366 0.97312725
C 0.8700492 -0.9515218 -0.02455444
C -0.0024063766 0.8197459 0.42941466
O -1.4073281 -0.5788692 -1.1137176
C -0.1535629 -0.07476857 -0.7806652
N -0.627296 1.817309 0.8585543
H 0.43090522 -1.8528919 0.41382644
H 1.81641 -1.1713647 -0.5213879
H -1.9578261 -0.5902304 -0.3218383
H 0.27151698 0.3776897 -1.681285
H -0.27454406 2.1103666 1.7685257
