11

O 1.6802857 0.6633018 -0.51384795
C 0.761789 -0.049849145 0.2495239
C -0.33837694 0.69154114 1.042535
O -1.3516986 -0.14643236 0.41599813
C -0.4224426 -0.6862997 -0.43980613
N -0.5570376 -1.3748643 -1.4781299
H 1.2580355 0.90645105 -1.3468307
H 1.3163495 -0.7577355 0.8735754
H -0.3450915 0.57375103 2.1272087
H -0.4627548 1.7386155 0.7507768
H -1.5390577 -1.5584797 -1.6810035
