11

O 1.6989084 0.9377533 0.07661622
C -0.009621528 -0.3763658 -1.0837609
C -0.62967926 0.13540989 0.8759752
O -1.4359964 -0.58253014 -0.054503728
C 0.34520024 0.76432663 -0.17139845
N 0.14557531 -1.4551795 -1.583263
H 2.0931737 0.07650124 0.2589913
H -0.093619056 -0.5168699 1.5776231
H -0.84884274 -1.5742046 -0.792188
H -1.2175015 0.8759586 1.4284995
H -0.047597304 1.7152003 -0.5325915
