13

C -0.5493634 0.027905324 1.7068971
C 0.0263058 0.1703839 0.33059976
N 1.138124 0.78993446 0.23462616
O 1.5633249 0.8747007 -1.1006929
C -0.71865475 -0.41565174 -0.8576835
O 0.06068868 -1.3141755 -1.6126822
H 0.08068948 0.52845705 2.4430463
H -1.5592912 0.4533142 1.7472564
H -0.6355044 -1.0332096 1.9686713
H 2.4211273 1.3048831 -1.0225606
H -1.0966932 0.4162913 -1.4717743
H -1.584297 -0.98162866 -0.49710146
H 0.8535435 -0.82120496 -1.8686022
