13

C -0.6393143 0.7028714 0.7873883
C 0.59438664 0.09799423 0.5570901
N 1.7252765 0.72417074 0.98592
O -1.2306827 -1.7423682 -1.193488
C -0.9970197 -0.4836064 -1.3555907
O 0.80221564 -1.0161935 -0.07052124
H -0.7055249 1.7090949 1.179699
H 1.6804208 1.6144137 1.4478514
H -1.8795073 0.14547166 -1.3242424
H -1.4698316 0.031702008 0.9981984
H 2.614644 0.3772678 0.6678167
H -0.35319087 -2.0145247 -0.7430226
H -0.14187239 -0.1462935 -1.9370989
