13

C 0.77800000 0.95232622 0.28525932
C 0.46299074 0.04503511 -0.89299087
N -1.16410512 -1.17386758 0.44028158
O -0.44060644 1.49264276 0.79186522
C -0.25065987 -1.26300374 -0.55922029
O -0.01315747 -2.29189617 -1.16336347
H 1.30654829 0.38260838 1.06305029
H -0.24443267 1.98290407 1.59796607
H -1.71950167 -1.98910835 0.65448924
H 1.43945582 1.76320698 -0.04976568
H -0.16031332 0.59739345 -1.60640234
H -1.38244625 -0.27334112 0.84686757
H 1.38822766 -0.22490045 -1.40803678
