13

C 0.4883039 0.15768363 -0.86632353
C 0.2559366 -1.2982321 -0.468856
N -0.708277 -1.4855484 0.46737912
O -1.0002277 1.278729 0.6430892
C 0.367346 1.1814064 0.25083464
O 0.8883833 -2.2065148 -0.97388047
H 0.99763614 0.8816671 1.1004176
H 1.4878532 0.2074172 -1.3052183
H -1.2616781 -0.7010836 0.7872152
H 0.72605413 2.1549907 -0.11076633
H -0.9567521 -2.4320617 0.7150492
H -0.22946177 0.411003 -1.6557571
H -1.0551165 1.8505434 1.4168168
