10

N 0.22645798 1.7679859 0.39372545
C -0.20131785 0.48043582 0.1641828
N -1.4009923 0.048332438 0.36193454
O -1.3371873 -1.3361331 0.104824044
C -0.08189194 -1.6977402 -0.26048273
O 0.2799967 -2.8101726 -0.5208671
N 0.6442011 -0.5149588 -0.25632727
H 0.75549096 2.1750052 -0.36551943
H -0.5332988 2.3690598 0.68257797
H 1.6485412 -0.4818146 -0.30404833
