10

N -0.21558458 1.97060169 0.42951551
C -0.31657046 0.66151319 0.05177794
N 0.70694424 -0.22266816 0.29219022
O -1.05171288 -1.20654625 -0.64019848
C 0.16453447 -1.31374795 -0.15350811
O 0.69248199 -2.52536524 -0.17312272
N -1.39142460 0.16514694 -0.50787317
H -0.88627624 2.59391775 0.00899883
H 0.72785061 2.32132894 0.46431827
H 1.56975721 -2.44418105 0.22790167
