10

N -0.5005491 1.3169793 0.50468796
C 1.4590665 0.3854707 0.22068468
N -1.804022 -0.4097215 -0.4179591
O 2.6450186 -0.03524936 0.10725984
C -0.6150049 0.12160071 -0.027780682
O 0.9155313 1.4953259 0.6583515
N 0.5887779 -0.5116717 -0.20820697
H -1.8590661 -1.4163362 -0.39536607
H 1.7861183 -1.015526 -0.380551
H -2.6158705 0.06912827 -0.061120193
