11

O -1.59061516 0.58726082 1.93997384
C -0.94080746 0.54655980 0.91941461
C 0.67146281 -1.03891960 -0.19709537
N 0.30193745 0.28147329 -0.75936783
C 0.57698112 0.15617067 0.69008560
C -1.08690187 0.73829445 -0.47333093
H -0.13248490 -1.76966491 -0.22182529
H 1.66370491 -1.39047209 -0.47252069
H 0.95192561 0.77184261 -1.36622335
H 1.47403082 0.60678017 1.10337794
H -1.88923352 0.51067478 -1.16248853
