11

O 1.2094828 2.0305774 0.89602375
C 0.4626987 -0.3708242 0.7179543
C 0.31066176 0.7791608 -1.0564561
N -0.028978907 -0.6780648 -0.6241954
C -0.97883 -0.7559016 0.4708719
C 0.755036 1.0882789 0.2934475
H -1.7494819 0.014987943 0.45527503
H -0.42581004 1.2922052 -1.669898
H -1.2847309 -1.7548997 0.7709056
H 0.619849 -0.5960984 -1.518243
H 1.1101036 -1.0494217 1.2643143
