11

O -2.2981813 -0.6239563 -0.42490283
C -1.1540825 -0.37429076 -0.16189095
C 0.11503008 -1.2135032 0.041830126
N 0.758625 -0.050248843 0.7288736
C 0.8564599 0.9826444 -0.28393686
C -0.44277224 0.8104256 0.41463062
H -0.059603963 -2.0405328 0.7348772
H 0.6603458 -1.5766299 -0.83525723
H 0.95848703 0.6970617 -1.3293765
H 1.4533995 1.8397754 0.018003717
H -0.8477075 1.5492547 1.0971491
