12

N -0.4546515 -0.45353624 1.914837
C -0.13941321 -0.13387993 0.5984425
C -0.9271954 0.72302896 -0.17475876
N -0.59921175 1.0824878 -1.4123017
C 0.53753275 0.5785667 -1.8944844
N 1.3676739 -0.24704494 -1.2585295
C 1.0226102 -0.5966834 -0.022237029
H -1.4315645 -0.3841902 2.1610847
H -0.032699473 -1.2998405 2.266725
H -1.8536159 1.1333814 0.22398226
H 0.8128149 0.8699739 -2.9040754
H 1.6977199 -1.2722635 0.5013149
