11

O -1.3050452 -0.92817366 -0.26317602
C -0.31692833 -0.48825023 -1.1722491
C -0.1628914 1.3421478 -0.19297358
C 0.7466374 -1.202518 -0.73149663
N 0.13835715 0.49574777 0.8627519
C -0.12342209 -0.94527745 0.5317279
N -0.37545556 0.90531415 -1.395574
H -0.15094629 -1.5827433 1.4209292
H -0.18493742 2.409212 0.021481086
H 1.7604188 -0.8412919 -0.87787634
H -0.025787037 0.8358327 1.7964555
