10

N -0.15837118 -0.7514193 -0.84449774
C 1.0605719 -0.28736615 -0.42034033
C 0.8372012 0.5968827 0.6078039
C -0.5704532 0.6666637 0.80956966
C -1.1585054 -0.17652297 -0.10200717
H -0.2982383 -1.4142605 -1.5872393
H 1.9764743 -0.62418723 -0.88267267
H 1.5933673 1.1372097 1.1597872
H -1.0865079 1.2694738 1.5437065
H -2.1955385 -0.4164736 -0.28410998
