10

N -0.93084574 -0.150434 -0.50715595
C 0.7580758 -0.0064606057 0.88737303
C 1.3819867 -0.08588303 -0.4808448
C 0.2240566 -0.087039374 -1.2665371
C -0.664627 -0.10726318 0.8001882
H 1.1043746 1.0302038 0.4373594
H -1.8687388 -0.1793754 -0.88535875
H 0.1275106 -0.11565863 -2.3458264
H -1.4428229 -0.15704499 1.5490493
H 1.31103 -0.14104457 1.811753
