12

N -0.7460913 -1.0205388 -1.0284257
C -0.23393272 -0.63524073 0.28054926
C 0.56875324 0.66445744 0.08436854
O -0.17158453 1.5718535 -0.67955977
C 0.89233905 1.2614514 1.3920275
N 1.155723 1.683686 2.434217
H -0.04700312 -1.528165 -1.5632131
H -1.5609249 -1.6120329 -0.94752914
H -1.0876995 -0.4135295 0.9335801
H 0.38853794 -1.3918841 0.7744618
H 1.5290632 0.42289868 -0.40345186
H -0.6871802 0.99704397 -1.2770246
