12

N -0.87795061 0.26918352 0.95086206
C 0.59778837 -0.24884850 -0.82876618
C -0.89758391 -0.11855916 -0.46151058
O 1.07881548 -1.57506804 -0.69713221
C 1.34587635 0.64706363 0.16262401
N 0.45222880 0.85186545 1.06830409
H 0.78770086 0.03119207 -1.86659320
H -1.41153280 -1.07208820 -0.58911826
H -1.53186215 1.02905749 1.12696877
H 1.19730938 -1.74870793 0.24487150
H 0.63672337 1.28302547 1.96496364
H -1.37751296 0.65188416 -1.07547361
