12

N -0.48382184 0.9240894 0.8120166
C -0.6661842 0.50347364 -0.57915294
C 0.29635218 -0.69591343 -0.7307597
O -0.34110957 -1.9401276 -0.5002245
C 1.3794475 -0.4929356 0.33265612
N 0.8419009 0.39250764 1.0993634
H -0.39135775 1.3058105 -1.2731208
H 1.2094986 0.6647953 2.0019524
H -0.4591828 -2.0335464 0.45313495
H 0.71075857 -0.76009303 -1.7385904
H -0.39836645 1.9363197 0.87612206
H -1.6979351 0.19562012 -0.7533973
