9

O -0.16987373 0.16834971 1.914729
C -0.08757147 -0.111054055 0.6102545
N -0.4029866 -1.1607168 -1.2496952
N -0.6401436 -1.1823087 0.053344395
N 0.36788595 -0.14273553 -1.5806333
C 0.5618472 0.62915665 -0.37824336
H 1.2882148 1.4254615 -0.32370386
H -0.23220845 0.9137527 -1.3717978
H -0.6851642 -0.5399054 2.3257456
