10

O 1.18827185 -0.93883413 -0.83797009
C -1.58001009 0.93441950 -1.56800586
C 0.46427938 0.13533246 1.30022440
O -0.27457294 -1.05779675 1.02393773
C 0.21853070 -0.32304957 -0.07489650
C -0.76494128 0.35511933 -0.90490868
H -0.11707942 0.95356652 1.72198428
H 1.44909041 -0.02319441 1.73829720
H -2.31176531 1.44410409 -2.15578440
H 1.72819659 -1.47966723 -0.24287806
