10

O 1.1449695 0.2597866 1.5981972
C -0.15600479 -0.2833827 -2.4678257
C -0.22056401 0.35981616 0.07903891
O -0.44834605 1.5748503 0.44603118
C -0.17641944 0.051663466 -1.3105804
C 0.1458875 -0.58395034 1.1684226
H 0.47137275 -1.5514954 0.7566945
H 0.065551735 1.4912933 1.3530341
H -0.13726637 -0.5623295 -3.4986875
H -0.68918085 -0.75625205 1.8756753
