10

O -0.951787 1.8535113 0.99836576
C -0.29499853 1.1054556 0.02575588
C -0.14003053 -0.33780208 0.46730754
O -0.56955445 -0.7035007 1.540364
C 0.5388712 -1.233479 -0.4575316
C 1.1037846 -1.9455423 -1.2464143
H -1.1545583 1.2354879 1.7197689
H 0.7080815 1.5072284 -0.18343742
H -0.8435935 1.1088144 -0.92857784
H 1.6037849 -2.5901737 -1.9356009
