10

O 1.5103838 -0.66621786 -0.52008456
C -0.09925297 1.0303061 -0.6772908
C -0.40776584 -0.76942444 1.079892
O -0.7607582 -1.2724847 -0.21166565
C -0.39648634 2.1162589 -1.0919986
C 0.24031712 -0.28053826 -0.14584972
H 1.6247765 -1.5906887 -0.25471377
H -1.1765244 -0.17640688 1.5725449
H -0.66715074 3.0791514 -1.4665737
H 0.13246107 -1.4699556 1.7157397
