14

C -0.2628301 0.03422743 -0.11428371
N 0.2724727 0.029127005 -1.3802117
C 1.6859884 -0.22973804 -1.556498
O 0.5090115 0.07085914 0.89217836
N -1.5357056 0.045205463 0.16024949
C -1.0087783 0.21440165 2.1644156
H -1.9855732 -0.23960723 2.299366
H 1.9885867 0.08871115 -2.5572557
H -0.34232885 -0.28588954 -2.1127324
H -2.2266715 0.16076216 -0.57560605
H 2.239667 0.35313153 -0.81718665
H -0.25599977 -0.24942644 2.7944734
H -1.022438 1.2954999 2.2228675
H 1.9445994 -1.2872642 -1.4197766
