12

N 0.72336246 0.44801552 1.70142763
C 0.32037043 0.76205697 0.43456986
O 0.58014912 2.03811360 0.08390155
N -0.34103965 -0.02849884 -0.32925067
C -1.14759162 -0.26634290 -1.48092241
C -0.69620187 -1.39512937 -0.55585525
H -1.44042465 -1.82642076 0.11280702
H 0.62388776 -0.53323140 1.93253067
H 0.12086816 2.20595951 -0.74972792
H 1.60597522 0.84406707 1.97855728
H -0.52249123 -0.21221308 -2.38173374
H 0.17313584 -2.03637627 -0.74630427
