12

N -0.4666126 -0.08790105 0.008502845
C -1.8337538 -0.3781653 -0.2745436
O 0.23047262 2.050047 0.49163926
N 1.7058841 0.3436513 0.76856387
C -0.7275645 -1.4169167 -0.45061627
C 0.4572127 0.72636926 0.36818916
H -0.66242856 -2.2137601 0.28951004
H 2.4470274 0.9757662 0.5159766
H -2.1124394 0.07706772 -1.2338344
H 1.916289 -0.6296693 0.58275175
H -0.71320724 2.194914 0.34153524
H -0.24087973 -1.6414031 -1.4076744
