12

N -0.29256603 -0.83505243 1.7679495
C 0.09880565 0.2919027 1.0855914
O 0.85340315 1.1295453 1.5315862
N -0.49768275 0.37533537 -0.18524534
C 0.2694093 0.9366481 -1.2711703
C -0.07105504 -0.5111604 -1.2566419
H -1.1420999 -1.2912482 1.4747168
H -0.103361905 -0.81970894 2.7586746
H -0.27493986 1.6165416 -1.9213252
H 1.298024 1.2140361 -1.0526208
H -0.8697707 -0.89553833 -1.8884029
H 0.73183405 -1.2113008 -1.0431123
