11

O -1.7170979 0.5990628 0.9490512
C 0.12554254 -0.21273044 -1.4555157
C 0.4567979 -0.27681288 0.63206583
O 1.0673736 -0.67421997 -0.5219473
C -0.9936492 -0.35908812 0.41178325
N 0.96691066 0.17950219 1.7000823
H -1.1276351 1.2351191 1.3984175
H 1.983155 0.12587035 1.6854287
H 0.096338555 -0.8476063 -2.3410509
H 0.19269575 0.85625875 -1.6552014
H -1.0504321 -0.62535554 -0.8031129
