11

N 0.5625076 -1.4110078 -1.3667725
C 0.17558785 -0.4390404 -0.45015743
C -1.0230744 0.104176536 -0.10755573
C -0.7119152 1.1312181 0.8553468
C 0.62839305 1.1180834 1.0140486
O 1.188813 0.15358317 0.21441706
H 1.4313228 -1.8595726 -1.1073647
H -0.16188274 -2.095779 -1.5357939
H -1.9957899 -0.17029712 -0.48513827
H -1.4152169 1.7833282 1.3547229
H 1.3212546 1.6853079 1.6142471
