10

O 0.39817485 2.71358783 -0.69819312
C -0.38785749 -0.74497101 0.13269186
O 1.83021854 0.14649172 0.28600059
C 1.08760109 -0.79860789 0.42352474
C -0.11873037 1.68944402 -0.50069714
C -0.85853982 0.60910496 -0.32106016
H 1.47008832 -1.77729646 0.77853199
H -0.60006092 -1.52326441 -0.61467865
H -1.91396698 0.75767883 -0.53079606
H -0.90692741 -1.07216789 1.04467577
