10

N -0.6746384 0.6504263 0.18868265
C -0.20281754 -0.5605308 0.4754716
C 0.18226212 1.1646492 -0.7722094
N -0.8501355 -1.0263648 1.5234863
C 1.0813336 0.20270847 -1.0759383
O 0.8327544 -0.9256068 -0.28077817
H 1.8969102 0.11744726 -1.7746135
H -1.4125634 0.24279596 1.2071307
H 0.078360416 2.1526449 -1.1964728
H -0.9314661 -2.0181699 1.7052411
