10

N -0.50609736 2.03620456 -0.69680687
C -0.25009804 0.88396252 -0.23932549
C 0.55255725 -1.22467426 -0.03938207
N 0.50665567 -0.09248743 -0.85072570
C -0.16074998 -0.93865883 1.05003642
O -0.66295672 0.34289845 0.95845277
H -1.08632098 2.56143962 -0.05051085
H -0.40579290 -1.49352119 1.94135288
H 1.08814730 -2.11885024 -0.31905785
H 0.92465568 0.04368660 -1.75403289
