11

C 0.59656286 0.7332374 2.2429206
C 0.30672854 0.16395529 0.9295233
C 0.07543281 -0.3174437 -0.1511934
C -0.14544089 -0.96986574 -1.4424788
O 0.3265878 -2.055088 -1.7121234
N -0.93654597 -0.2589667 -2.300881
H 0.45869216 -0.020274386 3.024828
H -0.05977164 1.579245 2.46208
H 1.6328111 1.0794364 2.2858396
H -1.0435233 -0.6222353 -3.2367504
H -1.2115334 0.68799996 -2.1017642
