11

C -1.35800255 1.08369271 0.51256881
C 0.74833512 0.17275502 1.55693780
C -0.28052282 0.34704350 0.46921883
C -0.12050600 -0.53085924 -0.75865630
O 0.52580836 -1.55450545 -0.71262277
N -0.75455360 -0.08202514 -1.87213761
H 0.44985298 0.67912785 2.47541320
H 0.86994058 -0.89879665 1.74335645
H 1.71527383 0.56809692 1.22734397
H -0.66331718 -0.63158115 -2.71462993
H -1.13230864 0.84705186 -1.92679214
