12

N -0.43484998 -1.6674651 2.3255532
C -0.34388357 -0.7710854 1.6033825
C -0.25332826 0.36108205 0.66310376
C 1.1521057 0.48104286 -0.007925232
N 1.0054104 -0.079381086 -1.3515527
C -0.2406674 -0.24261428 -1.5357952
N -1.0974282 0.15140711 -0.5127247
H -0.53694385 1.2737727 1.1944565
H 1.4484196 1.531882 -0.082827434
H 1.9250369 -0.050702885 0.55155575
H -0.6660335 -0.62197816 -2.4605691
H -1.9578379 -0.36595967 -0.3866572
