9

O -0.98933013 -1.85031083 -0.65895086
C 0.77790881 0.89604424 -0.20338801
N 0.12776541 1.82267406 0.34948389
N -0.35279100 -0.72830280 1.42228197
C -0.36602049 -1.14613019 0.24918646
N 0.81209368 -0.44479658 0.28536248
H 1.45426495 0.99265997 -1.06016420
H 0.31665144 2.71075396 -0.11310962
H -1.78054251 -2.25259171 -0.27070212
