9

C 0.07275381 -0.047637913 -0.698071
C 0.12929876 0.6468242 -1.7954563
C 0.012580158 -0.7570658 0.40765148
C -0.15834211 -0.121800445 1.7359945
O -0.2560887 1.0684174 1.9276884
H 0.08753773 -1.842242 0.3722076
H -0.19224292 -0.8447587 2.579196
H -0.7730869 0.8790517 -2.354575
H 1.0775902 1.0192118 -2.174636
