9

C 0.30055063 0.63353636 -1.77962463
C 0.30770734 0.02273948 -0.63219036
C 0.31817034 -0.60233035 0.52483567
C -0.60854077 -0.23338369 1.62135587
O -1.43611532 0.64673707 1.56281279
H 0.91402890 1.51480361 -1.94909107
H -0.32717072 0.28162241 -2.59385168
H 1.01709212 -1.41663902 0.70619727
H -0.48572251 -0.84708584 2.53955629
