9

C -0.34295705 0.41410926 1.2544879
C 0.48701122 0.15612274 -0.14956419
C 1.0279967 -0.1407435 1.0502733
C 0.35572308 -0.62619346 -1.4080815
O 1.2749748 -1.194463 -1.9368035
H -0.484685 1.4635154 1.5139643
H -1.1061409 -0.2731818 1.6181945
H -0.54236245 0.8241451 -0.10683698
H -0.66956043 -0.6233106 -1.8356336
