11

N -1.3033135 -1.7785006 -1.3084414
C -0.31574258 -1.2985313 -0.7647222
C 0.69207907 0.36321393 0.7505095
C 0.7296652 -0.85925585 -0.10240553
C -0.36075306 1.3674936 0.64066416
O 0.94063765 1.6167436 0.12354545
H -0.64316374 1.9544688 1.5145503
H 1.1996119 0.2535838 1.7093729
H 1.6641542 -1.4030516 -0.18793106
H -1.4626216 -1.463582 -2.2627497
H -1.1405538 1.247417 -0.11239247
