11

N 0.24258602 -3.0054493 0.82360935
C 0.1457386 -1.9425725 0.25169587
C -0.121785805 0.5223931 0.34284705
C 0.37377003 1.7759744 -0.2402711
C 0.023044191 -0.7412158 -0.40601346
O -1.0140111 1.4808282 -0.21335486
H 0.8329225 1.756846 -1.2288446
H -0.9812063 -2.1434648 0.3111858
H -0.15055825 0.45074606 1.4302137
H 0.6993732 2.5815527 0.4172435
H -0.049873028 -0.735638 -1.4883114
