11

N -0.34900771 -1.92586051 -1.65618964
C 0.03726605 -1.41184379 -0.61317630
C -0.38819705 1.50310528 0.02469406
C 0.01565509 0.47225224 0.97513849
C 0.36943665 -0.91422370 0.55581500
O 0.90653675 1.52182931 0.61331015
H -1.06360340 2.29773982 0.34148243
H -0.34578867 0.54919424 2.00103600
H -0.40641478 1.27285244 -1.04125791
H 0.28896689 -1.83017948 -2.44301279
H 0.93514993 -1.53486590 1.24216029
