11

N 0.45240498 1.6680822 0.30451775
C 1.1614189 -0.31732628 0.18484943
C -0.25025508 -0.30893666 -0.16747859
C -0.6971039 1.0757203 -0.12623274
N 1.5544381 0.8913553 0.4695718
N -0.9244078 -1.3518771 -0.82701087
H -1.8415877 -1.0501778 -1.1301917
H 0.54900956 2.6466372 0.5201898
H -0.86617714 0.10692867 0.8453768
H -0.9859345 -2.2063508 -0.29070783
H 1.8481944 -1.1540549 0.21711613
