11

N -0.014772618 0.0921641 -1.7682265
C -0.020417484 -0.9497266 -0.9811094
C 0.17381611 1.1919558 0.046046644
C 0.209275 -0.28329968 0.36660022
N -0.70413065 -0.723833 1.4060799
N 0.091980465 1.4078268 -1.2102053
H -0.8823528 -1.7129033 1.2716303
H 0.26714814 2.0178566 0.7428536
H -0.29211062 -0.60583496 2.3236086
H 1.2767651 -0.50684 0.5762679
H -0.10520051 0.07263427 -2.7735462
