10

O 1.62132447 0.82264848 0.26257678
C 0.11264949 -0.17182952 -1.42231577
C 0.38791260 0.31855401 -0.10936570
N -2.17217226 -1.66588129 0.96687389
N -1.31335253 -0.92827407 1.04307679
C -0.33165703 -0.09713163 1.11628249
N -0.36243452 0.98536072 -1.21911184
H 0.15280122 -0.88569861 -2.23445549
H 1.99297877 1.30521409 -0.48850308
H -0.08805029 0.31703795 2.08494198
