10

O 0.9924672 0.5060767 -1.797009
C 0.38410008 0.18148148 -0.65576273
C 1.1483327 -0.28083003 0.4332329
N 0.5637673 -0.60502553 1.5669799
N -0.7602182 -0.49190173 1.6811875
C -1.4290065 -0.052364804 0.6272109
N -0.9210099 0.2980863 -0.5610926
H 0.30228674 0.7974551 -2.4154906
H 2.2254896 -0.38348672 0.37677595
H -2.5062091 0.03050936 0.74396783
