12

N 1.02695070 -1.74422706 -0.11848270
C -0.08224268 -1.84734275 0.75402667
C 0.97518218 -0.50873196 -0.50149772
N -0.88024435 1.23340795 -0.47998387
C 0.05461481 1.65401466 0.67853229
N -0.76946050 -0.78069493 0.97325460
C -0.07059869 0.21981295 0.23619412
H 0.92079614 2.10611922 0.17476456
H -0.32552001 -2.81148711 1.18714376
H 1.70495271 -0.07900914 -1.18447630
H -0.68961897 1.34373678 -1.47221691
H -1.86481098 1.21440164 -0.24725817
