12

C -1.68947908 0.93677853 -1.18802911
N -0.77889404 0.53355286 -0.35843260
C 1.23600697 -0.43278788 1.43966989
N 1.04794792 -0.84886509 0.21303854
C 0.10934833 -0.41558209 -0.71375568
O 0.54639457 0.51639292 2.02311397
H -2.38673088 1.70003639 -0.86076060
H -1.78432612 0.53977408 -2.19667174
H -0.13349718 0.84440129 1.38581020
H 1.68163865 -1.57818261 -0.09162491
H 2.02331880 -0.89058420 2.02554711
H 0.12827218 -0.90493405 -1.67790508
