12

C -0.7658576 1.1746104 0.0052098827
N -0.18476073 -0.15447743 -0.14234872
C 1.0625854 -0.41360158 0.40057325
N 1.7031747 0.48642677 1.0323303
C -0.85694164 -1.1472186 -0.8197554
O -1.9409198 -1.0203977 -1.3350217
H -1.7411838 1.1588541 -0.48202172
H -0.11297258 1.9174656 -0.45961836
H -0.8660335 1.4179051 1.0656842
H 1.4021126 -1.4410535 0.22121276
H 2.5892935 0.11842819 1.3585972
H -0.28849643 -2.0969412 -0.8448417
