12

C 1.8553759 -0.39095184 -0.11839698
N 0.62814575 -0.5225169 0.5218215
C -0.47047773 0.06376109 0.09689285
N -0.4553525 1.0022821 -0.9250488
C -1.7325488 -0.3283558 0.69882286
O -2.7968845 0.1917714 0.4203679
H 0.9921898 -1.5491502 0.18526304
H -1.3674581 1.4387928 -1.0044911
H -1.6430168 -1.136166 1.4532214
H 0.28258565 1.6879835 -0.82785726
H 2.7042975 -0.7269824 0.46479285
H 2.0031438 0.2695321 -0.96538836
