10

C -0.93095905 0.37749928 2.3648627
C -0.47389773 0.21208894 1.2651365
C 0.067032635 0.009156287 -0.034090817
C 1.3403853 0.120680526 -0.5498126
N 1.3037125 -0.19776474 -1.86725
N 0.08688471 -0.5001038 -2.199442
N -0.66567826 -0.378996 -1.1099088
H -1.3292717 0.52778065 3.34532
H 2.2552884 0.4028724 -0.054129563
H -1.653497 -0.57321364 -1.1606855
