10

C 0.8721085 0.81752783 0.28970745
C -0.8299625 -1.0823195 -2.1401129
C -0.21386436 -0.14474918 0.2621548
C -0.5355921 -0.64540434 -1.0600185
N -0.82031834 -0.50262845 1.3296908
N 1.2285814 1.3156651 1.438962
N 1.5307503 1.7417653 2.4402587
H -1.5487746 -1.1838555 1.1144916
H 1.4151112 1.1599215 -0.57730794
H -1.0980395 -1.4759228 -3.0978253
