10

C 1.08038078 0.05505136 -0.58532218
C -0.02020248 0.07117579 0.36047365
C -1.30956776 -0.25489391 -0.21704024
C -2.39429162 -0.52066793 -0.66076426
N 3.30808624 0.57560924 0.23883949
N 2.27545199 0.33333310 -0.14901523
N 0.15988331 0.35418837 1.59456040
H -0.72410388 0.31293020 2.10239297
H 0.98748195 -0.17057289 -1.63616210
H -3.36311871 -0.75615343 -1.04796256
