12

N -0.43806615 -1.6633043 2.3320553
C -0.34625465 -0.7694375 1.6064719
C -0.25357622 0.3614567 0.6614298
C 1.1529174 0.48132408 -0.008222986
N 1.0063229 -0.076284006 -1.3510332
C -0.23842911 -0.24360728 -1.5365636
N -1.1002058 0.14858523 -0.5113791
H -0.5372335 1.2753556 1.1907974
H 1.4512627 1.5314765 -0.08310383
H 1.9257479 -0.052928574 0.54847676
H -0.661977 -0.6286118 -2.4601133
H -1.9605087 -0.36402443 -0.38881516
