12

N 1.04167787 -0.32141170 0.15572599
C -0.36986627 -0.85278709 0.08786395
C -1.16429239 0.32742962 0.56505608
C 0.86163494 1.16839258 0.19036335
N -0.80065465 -1.81891243 -2.26566255
C -0.61452656 -1.35149808 -1.21280435
N -0.30709293 1.53460216 0.40709005
H -1.42599124 0.31087405 1.63340276
H 1.73648310 1.80621912 0.09283228
H 1.53935888 -0.63876552 0.99369290
H 1.59440547 -0.63173289 -0.65129355
H -2.09113644 0.46759040 0.00373307
