12

N 2.8601463 -0.07122635 1.0011086
C -0.050852418 -0.8342259 -1.0029943
C 0.417118 -0.6675525 0.43996352
C -1.0845662 1.0334281 -0.35770333
N -0.80986524 0.36882246 -1.3882726
C 1.7596979 -0.3202384 0.7179313
N -0.5558129 0.53040457 0.8825213
H -0.72766244 -1.6906494 -1.1253043
H -0.73237586 -0.49350426 1.303451
H 0.78734744 -0.978877 -1.6923323
H -1.688615 1.9363467 -0.3318525
H -0.17455961 1.1872722 1.5534837
