11

O 0.46047702 -1.1777394 0.9140948
C -0.4593089 0.38538706 -0.23367113
C 0.79321736 -0.26471466 -0.0067901798
O -0.6413045 1.7492902 0.051641006
C -0.919234 -0.60127103 0.86879694
N 1.653831 -0.21138608 -0.97304106
H -1.1548386 -0.1378567 1.8297344
H 2.5820131 -0.6113094 -0.9575157
H -1.6064644 -1.4121313 0.6156802
H 0.51764154 0.18968576 -1.4799274
H -1.22603 2.0920455 -0.6290017
