11

O -0.48700356 -1.2917424 0.52655566
C -0.32369375 -1.1354084 -0.9208004
C 0.17167066 0.26420256 -0.63565165
O 0.51398027 1.3592283 -1.3830713
C -0.041189764 0.015582366 0.6586526
N 0.060846243 0.58405334 1.9106818
H -1.2912048 -1.2401539 -1.422955
H 0.39976287 1.5362762 1.8563219
H 1.412386 1.2395023 -1.7195394
H -0.8087053 0.5402344 2.4298995
H 0.39315107 -1.8717746 -1.300094
