12

O 0.40507576 1.1747419 -2.168739
C 0.75490093 1.2912962 -0.81446147
C 0.20861879 0.16838373 0.01946711
N -0.7514238 -0.61471015 -0.43118852
N -0.9802872 -1.420117 0.6227886
C -0.16399775 -1.0926408 1.6441962
N 0.60352534 -0.08553811 1.3004631
H -0.48534 0.80144554 -2.2078342
H 0.40348876 2.2399771 -0.37945142
H 1.8471001 1.2902516 -0.7478692
H -1.67372 -2.146604 0.5674063
H -0.16794091 -1.6064861 2.5952225
