10

O 0.21521309 2.211745 0.3925472
C 0.11692848 0.88424397 0.16219287
C -1.004493 0.19441567 -0.21381019
N -0.56970483 -1.1189827 -0.31096736
C 0.74451125 -1.1397092 0.0022392739
N 1.1939464 0.059655145 0.294443
H 1.1322905 2.3769488 0.6479785
H -2.0208924 0.49036083 -0.4118056
H -1.1368039 -1.9099182 -0.5673527
H 1.3290044 -2.048759 0.0045351316
