9

O -0.3182968 -0.37808326 -1.928474
C -0.1404308 -0.044881813 -0.64659584
N -0.4458637 0.98014987 1.2037212
N -0.95573807 0.78227293 0.0061001796
N 0.7193867 0.1840808 1.357512
C 0.87472886 -0.4756578 0.2024449
H 1.6775868 -1.1770276 0.03387782
H -0.3118104 0.03308377 2.0189474
H -1.0995628 0.0960631 -2.2475336
