9

O -0.8910861 1.0144022 -1.5545639
C -0.40611237 0.38487443 -0.469839
N -1.066005 0.36939484 0.70977896
N -0.369209 -0.31032994 1.5729525
N 0.7277383 -0.7246453 0.95068985
C 0.7668609 -0.3193396 -0.34773886
H 1.40313 -1.2722689 1.4592158
H -1.7365347 1.4082474 -1.2944078
H 1.5712178 -0.550335 -1.0260874
