11

O 0.18474345 -1.9084269 1.1320424
C 0.026728533 -0.7647576 0.41544995
C -0.87547666 -0.36670655 -0.5386232
C -0.5004369 0.9647672 -0.9085816
C 0.5969098 1.314233 -0.17516051
N 0.9140332 0.24196833 0.63800657
H -0.506379 -2.524138 0.8620975
H -1.7009077 -0.9465116 -0.9266674
H -1.0002483 1.5823772 -1.6406158
H 1.184552 2.218607 -0.15172036
H 1.6764815 0.18858811 1.2937727
