9

O -2.5451903 -0.87034214 -0.9008844
C 1.4525338 0.4385652 0.62672764
C -1.526377 -0.2585549 -1.0655844
N 1.6746962 -0.013579911 1.7510302
C -0.43620634 -0.22804771 0.003689097
N 0.66930526 0.54783857 -0.39078057
O -0.52531654 -0.80911505 1.0635562
H 2.517701 0.8716705 0.8881102
H -1.2811458 0.32156542 -1.9758639
