9

O -2.91934121 0.85946175 0.31635551
C -1.93414684 0.23433028 0.58280420
C -0.65734006 0.34529281 -0.26532425
N 2.72858764 -0.35970121 -0.17037701
C 1.53938263 -0.41852237 -0.04622371
N 0.34342147 -0.48393954 0.27171485
O -0.56916977 1.02586620 -1.24661030
H -1.85061598 -0.45764095 1.44141260
H 3.31922250 -0.74514700 -0.88375207
