9

O -2.5780668 0.6764233 0.29475254
C -1.630556 0.101768605 0.76345104
C -0.30067837 0.04681882 0.09483169
N 0.76177853 -0.54989386 0.54223
C 1.6589569 -0.28295973 -0.4563535
N 1.1865633 0.42135024 -1.4414352
O -0.12581427 0.64688534 -1.0785306
H -1.6584016 -0.43822497 1.7266
H 2.6862187 -0.62216777 -0.44554615
