11

C -0.859943 -0.5743323 -0.35944995
C 0.12938339 -0.38527504 0.32903117
C 1.1923432 0.37049094 1.1743815
C -2.093063 -0.6763198 -1.1310742
O 1.4560686 -0.8806887 0.7960167
N 2.2194328 1.2170876 1.0927819
H -1.9835491 -1.4282694 -1.9197521
H -2.9374335 -0.98266387 -0.50345045
H 2.1016507 2.189456 1.3285321
H 3.135279 0.8793642 0.8060686
H -2.360169 0.2711505 -1.6130854
