11

C -0.77606648 0.25310271 0.89328166
C 0.20437389 -0.25862173 -0.11228695
C 0.73039301 0.48863276 -1.28951860
N 0.53883276 -1.45757000 0.17921451
N -0.19198669 -1.81418183 1.38201617
N -0.91231587 -0.88940889 1.78249186
H -1.75222878 0.50872195 0.46835826
H -0.41528855 1.12028051 1.45647847
H -0.09283137 0.78627570 -1.94636228
H 1.24094209 1.40097633 -0.96687493
H 1.42617578 -0.13820775 -1.84679802
