11

C -0.6987351 0.75196034 1.2587979
C 0.58142215 -0.9461059 -0.27705804
C -0.033255234 0.2748399 0.00898659
N 0.6616137 0.3520739 -2.0500185
N 1.0702549 -0.8277312 -1.6237723
N 0.054416385 1.0263906 -1.0926632
H 0.9178853 -1.7513131 0.36313158
H -0.05610792 0.6060697 2.1306822
H -0.9225502 1.8159885 1.1560104
H -1.6358869 0.21443327 1.432459
H 0.060942885 -1.5166063 -1.3065553
