11

O 1.2002423 0.6388492 -1.9655743
C 0.16704695 0.68332744 -1.3573501
C 0.042368356 0.16552801 0.05252528
C 0.8671862 -1.0050795 0.44006163
O 1.199234 0.2863366 0.869193
C -1.2521433 0.36803287 0.7759518
O -2.2888756 0.6047397 0.21017173
H -0.76890934 1.0955583 -1.7838916
H 0.49322122 -1.6836727 1.2087845
H 1.5157003 -1.4229383 -0.32706025
H -1.1750715 0.26931837 1.8771881
