11

O -0.101663716 1.5495466 -0.27661607
C -0.378517 -0.2750336 1.2137053
C -0.4702501 -0.6293929 -1.4893987
C -0.20617251 0.11301727 -0.24974789
O 0.8048028 0.48744547 1.5589768
C 0.98486525 0.82527083 0.21430843
O -0.8483967 -1.7788318 -1.4938
H -0.21007696 -1.3399018 1.3913866
H -1.2793452 0.08350787 1.7174196
H 1.9793994 1.0194818 -0.17010833
H -0.27464554 -0.055109803 -2.4161263
