10

C 0.3838088 2.053105 1.4996607
C 0.18242735 1.0920142 0.80340517
C -0.05882571 -0.04140539 -0.01989864
C -1.2053018 -0.7199333 -0.37378126
N -0.86951244 -1.7399526 -1.1987225
N 0.4165244 -1.7383235 -1.3802555
N 0.91470087 -0.7252348 -0.6782781
H 0.5556183 2.9075844 2.117837
H -2.2279174 -0.53168774 -0.08405511
H 1.9084775 -0.55616605 -0.6859122
