10

O 0.991805 0.5091502 -1.7970386
C 0.38422853 0.18281923 -0.6535636
C 1.1498321 -0.28019422 0.43525904
N 0.5657316 -0.6058957 1.5663666
N -0.7637187 -0.49517563 1.678492
C -1.4287508 -0.05544832 0.6276638
N -0.91978276 0.2993231 -0.5634916
H 0.29878193 0.7977259 -2.4123104
H 2.2277591 -0.3803496 0.37654176
H -2.505886 0.028044935 0.742081
