11

O -1.7424921 0.48217294 1.4794279
C 0.045871217 0.021955688 -0.023955232
C -1.3431768 -0.13425797 0.52688974
C 0.74786824 1.3287392 0.250311
O 0.04321072 -0.3799735 -1.3985053
C 0.86504513 -1.2250988 -0.12268864
O 1.5252591 1.8022978 -0.53388596
H 0.49875787 1.796643 1.2204435
H -1.950015 -0.8959053 -0.0016521458
H 0.21853979 -2.100141 0.050587036
H 1.0911319 -0.6964319 -1.4469721
