11

N 1.4431353 -0.8879873 -0.21352622
C -0.0052845245 1.215437 -0.67196876
C -0.67934513 0.39692888 0.092490174
N -1.8320442 -0.103828266 0.6014856
N 0.8789121 -1.8687431 -0.63658655
C 0.7665465 0.36992344 0.27351618
H -2.6462095 0.035012923 0.019538261
H 2.4807234 -0.82146806 -0.11477414
H 1.2891669 0.7532089 1.1533198
H -1.7451655 -1.054421 0.9341549
H 0.04956449 1.9659365 -1.4376494
