10

N 0.14362689 0.08251834 2.02565422
C 0.20062710 0.07268912 0.73068866
O 0.44507095 0.11602342 -1.53799638
C 1.08479423 0.34139492 -0.31825182
C -0.76060807 -0.26809063 -1.29673272
N -0.97856217 -0.32158552 0.00233123
H 1.03158724 0.38630075 2.40982248
H -1.83259812 -0.58112996 0.47266324
H -1.44041132 -0.49985794 -2.10276294
H 2.10647338 0.67173747 -0.38541590
