11

C -0.74543744 0.85511947 0.07645487
C -1.8259968 1.2757294 0.8154733
C 0.46286303 0.6264923 -0.3066644
C 0.9293353 -0.6828311 -0.7822455
O 0.45952657 -1.2325709 -1.759225
N 1.9596052 -1.2166361 -0.04149684
H 2.5020828 -0.59382695 0.53329086
H -1.6068206 0.15429099 -0.28668332
H -2.755221 1.5309331 0.31491917
H 2.4319813 -1.9985217 -0.4674363
H -1.8119191 1.2818215 1.9036131
