11

N -2.000268 -0.51728785 -1.915561
C -1.5752954 0.027616791 -0.9912121
C -0.9989527 0.6959036 0.19438873
O -0.3130557 -0.20772289 1.0268375
C 0.805184 -0.8234958 0.43666038
C 1.8540686 0.15613472 0.08000202
N 2.65146 0.94338924 -0.1974899
H -1.8024046 1.1173418 0.79960585
H -0.34801027 1.5145485 -0.14514084
H 1.1986148 -1.5203873 1.1782988
H 0.5286592 -1.3860408 -0.46638936
