11

N -1.2071606 -1.2084908 -0.41423893
C -0.63747466 0.85423577 0.7692212
C 0.8716473 -0.054818235 -0.98111683
O 0.3237631 1.0758406 -0.28434008
C -0.72948533 -0.66660094 0.77255994
C 0.17860433 -1.216082 -0.26363704
N 0.47650266 -1.288123 1.0789187
H 0.5980738 -0.005294631 -2.0388734
H -0.2473357 1.2475506 1.7091389
H -1.5820851 1.3342665 0.4999446
H 1.9549502 -0.072484046 -0.8475766
