10

N 1.48648280 0.08909021 0.00409568
C -1.70814959 -1.52039263 0.39436311
C -0.86887357 -0.66246090 0.47690149
C 0.62060128 1.05639828 -0.64911846
C 0.16372825 0.34923544 0.58133697
H 0.13862805 0.78289338 -1.58390637
H -2.45612909 -2.27855317 0.31740209
H 1.48364434 -0.79637637 -0.49084205
H 0.94134646 2.09256293 -0.57626603
H 0.19872081 0.88760255 1.52603345
