10

N 0.15633121 1.0503128 0.5307777
C 0.08775588 -0.33857048 0.7657184
C -0.76607317 -1.0223024 -0.15262145
C 0.48846313 0.8779715 -0.8107747
C 0.2821053 -0.44376388 -1.221404
H 0.7366222 -0.81731963 1.4894742
H 0.9141214 1.7032351 -1.3802586
H 0.6087114 1.7116817 1.1474587
H -0.7466421 -2.1108475 -0.06552679
H -1.7613952 -0.61039704 -0.30284375
