10

C 0.2798765 -0.027334694 -0.4367399
C 0.63988084 0.25296682 1.0363829
O 0.8153078 0.6745563 -1.3813157
C -1.138634 -0.17641336 -0.74128854
H 0.3281427 1.2699488 1.2882138
H 0.1597393 -0.45007786 1.7248231
H 0.4350514 -1.1641845 -0.6096585
H 1.7251408 0.18528308 1.1451472
H -1.562458 0.5372081 -1.4524806
H -1.6820476 -1.1019528 -0.57308376
