12

N 0.49891489 -1.69981899 1.11066769
C 0.26986807 -0.52748589 0.36809930
C 2.14907197 0.77740236 -0.64867238
N -1.46269147 0.97870310 -0.32863779
C -1.83277901 1.80396910 -1.15259114
N 1.20678769 0.06142552 -0.26020146
C -1.08878641 0.00269076 0.40055694
H 1.48133783 -1.93815323 1.14146939
H -0.04574753 -2.48835782 0.78465167
H 2.41175281 0.59578481 -1.70205700
H -1.80202740 2.84982743 -0.82899577
H -1.78570117 -0.41598741 1.11571075
