12

N 1.8644317 -0.59601897 0.044050355
C 0.5513328 -0.26857096 0.253396
C -0.48503178 -1.3502531 0.1344077
N -1.2763833 -1.2240196 -0.81067055
C 0.17382267 1.0628036 0.47856772
N -1.0085118 1.4704815 0.13172308
C -2.1706107 1.3136208 -0.21033596
H 2.4153912 -0.011618268 -0.5722394
H 0.85596997 1.7605578 0.95949626
H 2.0775092 -1.5754317 -0.05340532
H -0.47474024 -2.218827 0.8306445
H -2.5231793 1.6372762 -1.1856344
