10

O -0.25451895 1.88671882 1.16089328
C -0.11604414 0.86684229 0.53254147
C -0.55496111 -0.97123449 -0.71082464
N -1.11888720 0.14543796 -0.10005379
C 1.13493853 0.04881447 0.22203433
N 0.70666431 -1.09561620 -0.57532547
H 1.86121876 0.65512154 -0.33003407
H -2.09206885 0.40539415 -0.09017958
H -1.18587306 -1.66512837 -1.25739776
H 1.61953162 -0.27634997 1.14834636
