10

O 0.122730754 -0.35553473 2.1978838
C -0.7424035 0.30935356 -1.053417
C 1.1335915 -0.2227423 -0.07158031
N 0.48233905 0.09746352 -1.337385
C 0.05723564 -0.16261329 1.009338
N -1.079286 0.18253678 0.29136503
H 1.5885867 -1.2180046 -0.10396364
H -1.9910702 0.301905 0.7026533
H -1.5049253 0.57357407 -1.7793845
H 1.9332013 0.49406195 0.14449047
