11

N 0.6239978 0.10598094 0.9418231
C 1.4281107 1.2050064 0.618407
C -0.23945211 -0.38691252 0.14997143
O 1.2776504 2.3018148 1.0887957
C -0.54020077 0.16611241 -1.2253548
O 0.04858509 1.1144003 -1.6791844
N -0.9206024 -1.5298342 0.47448573
H 2.2856665 0.9320433 -0.023743352
H -1.3230047 -0.36422354 -1.8037632
H -1.8010222 -1.7157559 0.022206409
H -0.8397283 -1.8286315 1.4363562
