11

N -1.0154002 -1.0710031 -1.2651329
C -0.23983015 -0.25815856 -0.44990754
C -0.46879125 1.0595539 -0.08162377
O 2.3166585 0.4615819 1.6708015
C 1.2272601 0.2551601 1.1836866
O 0.32229373 1.4187173 0.8964647
N 0.75860167 -0.76339227 0.29197112
H -1.5561823 -0.56777394 -1.954685
H 0.39416394 -0.46062773 1.7653841
H -1.2596225 1.7429613 -0.3723464
H -0.4791516 -1.8170185 -1.6846124
