11

N 0.9490621 1.1450034 1.1231211
C 0.11969909 0.32308957 0.35870558
C -1.2042633 0.1274521 0.3120984
O -1.5091794 -0.72620946 -0.7399033
C -0.34828776 -1.0891674 -1.3600886
O -0.27647024 -1.8032215 -2.3235326
N 0.6635519 -0.47124964 -0.65498173
H 1.6162131 0.62098277 1.6781836
H 0.419052 1.7585816 1.7267194
H -2.0259376 0.4999562 0.90026546
H 1.5965602 -0.3852177 -1.0205873
