10

O -1.3427476 -1.4773968 0.5523722
C -0.5344569 -0.6007747 0.4321291
C 0.71448493 0.6825288 -0.6665047
N -0.7893947 0.72958666 -0.2238325
C 0.9469023 -0.40788653 0.4367994
H 0.64715374 0.15042233 -1.6282213
H -0.95575887 1.4832217 0.4500651
H -1.5270548 0.73164606 -0.927739
H 1.5222133 -1.3050647 0.19378208
H 1.3186585 0.013717098 1.3811495
