10

O -0.89648778 0.24169226 -1.85167004
C 0.74748774 0.13944405 0.91781276
C -0.49087399 -0.06617310 -0.76679450
N -0.61788831 0.77250356 0.47643882
C 0.50154093 -0.99110341 -0.14127929
H -1.38310096 0.47032479 1.08710925
H -0.68469709 1.77730896 0.31664606
H 0.03494716 -1.88683831 0.29196274
H 1.31722374 -1.29591295 -0.80212838
H 1.47184873 0.83875432 0.47190255
