12

N -0.9283209 2.0802894 1.7880678
C -0.8566785 1.274394 0.96424454
C -0.76184726 0.22264755 -0.06607515
C 0.3963517 0.4732065 -1.0836855
N 1.4889237 -0.41203898 -0.68094325
C 1.006525 -1.1950219 0.19520383
N -0.34431705 -1.0523944 0.5091779
H -1.7330513 0.13570724 -0.56088
H 0.07152001 0.21192575 -2.0951161
H 0.7255461 1.515395 -1.091979
H 1.576497 -1.988942 0.67140317
H -0.6411486 -1.2651684 1.4505821
