12

N -0.92226976 2.0809305 1.7874193
C -0.8557752 1.2752875 0.9636011
C -0.76113904 0.22197627 -0.06810813
C 0.3953209 0.47505164 -1.0849172
N 1.4860766 -0.4115279 -0.6789816
C 1.0039643 -1.1960486 0.19681361
N -0.34649745 -1.054979 0.5099638
H -1.7331815 0.13187002 -0.5607578
H 0.07470079 0.21676339 -2.0990052
H 0.72519755 1.5172195 -1.0893834
H 1.5731925 -1.991568 0.6695792
H -0.63958985 -1.2649753 1.4537765
