12

N -0.31878076 1.65097056 -0.03065030
C 0.29713778 0.75673945 0.94782880
C -0.60364339 -1.58344192 0.63239410
C -0.29913824 1.03558420 -1.14217480
N 0.29343690 -0.22391916 -1.16930222
C 0.44277587 -0.62381826 0.23233996
N -1.43421641 -2.33251422 0.91777918
H -0.09082506 -0.90353059 -1.81100604
H -0.67378264 1.46118483 -2.06908837
H 1.28121315 1.14546871 1.22661549
H 1.42021164 -1.07865752 0.41362428
H -0.31438901 0.69593394 1.85164008
