12

N 0.82448345 -1.0538986 -0.14525296
C 0.6061697 0.008464922 0.758719
C -0.64967763 1.0464008 -1.0568509
O -1.7665187 -0.34114805 0.48437777
C -0.79941434 0.6382105 0.4503557
N 0.02430356 0.35078403 -1.7379369
H -1.0838494 1.4656888 1.0954068
H 1.361931 0.80932474 0.7955414
H 1.8164442 -1.0894343 -0.3763934
H -1.3138723 -1.1284139 0.12827833
H 0.5644762 -0.3598014 -2.1827512
H 0.41552424 -0.34617746 1.7865064
