10

O 0.79140395 1.933161 -0.76138514
C 0.3533398 0.88935727 -0.3768592
C -0.9289809 0.44102967 0.3282024
N -0.5056931 -0.95613307 0.096073665
C 0.8335546 -0.5641132 -0.38899228
H -0.9569773 0.766159 1.3778065
H -1.8713121 0.7245803 -0.15324624
H -0.48977518 -1.5282989 0.9321974
H 1.6653026 -0.728404 0.3113084
H 1.1091377 -0.977338 -1.3651056
