10

O -0.40196880 1.17686992 -2.28031565
C 0.70823151 -0.17470078 1.63078536
C -0.80061968 0.71237800 -1.24280749
N -0.32347850 -0.28657109 0.90160330
C -0.11389382 -0.43309410 -0.52726289
H 0.58135889 -0.04452902 2.70598033
H -1.71120376 1.08852460 -0.73457341
H -0.61508457 -1.35703764 -0.84993460
H 0.94028772 -0.48358995 -0.84499180
H 1.73637108 -0.19824987 1.24151674
