10

O -0.44009167 0.97087187 -1.7277863
C 0.46154037 -0.973076 -0.6002175
C -0.18826424 1.2159829 0.5551382
O 0.636405 -1.4204122 0.7233915
C -0.15689974 0.41418663 -0.6785995
O -1.3862646 1.3254079 1.0434341
H -0.20820715 -1.6813608 -1.0977294
H 1.4008719 -0.9491263 -1.175537
H -1.3781146 1.921816 1.8044796
H 1.2590247 -0.82429016 1.1534263
