10

O 1.7989693 0.13995187 -0.17417617
C 0.64882547 -0.07528614 0.14189142
C 0.33072215 -0.6424135 1.5008038
O -0.81738234 -0.27813524 2.0010796
C -0.49691477 0.20520514 -0.8146347
O -0.035120405 0.69036096 -2.035207
H -1.0627613 -0.7308295 -0.9467293
H -1.1732881 0.92258763 -0.32813206
H -0.124417685 -0.9547345 2.6287153
H 0.93136764 0.7232932 -1.9736108
