10

O 0.45940120 1.70210179 -1.00663723
C 0.20610575 0.68700935 -0.37709946
C 0.24752891 -0.70985403 -0.97723806
O -0.14499688 -1.70894648 -0.06599393
C 0.09367733 0.79590346 1.08627733
O -1.07743710 1.21111762 1.46270764
H 1.26108895 -0.86667317 -1.37974725
H -1.08674197 1.34546014 2.42021733
H -0.44836088 -0.74691658 -1.82110473
H 0.48973482 -1.70920212 0.65861791
