10

O -0.55615832 -0.89822300 0.29540111
C 0.61503076 -0.48648298 0.91598057
C -0.65989367 -0.40725131 -1.03308545
O -0.81705684 0.96884553 -1.08330880
C 0.60131616 0.58465557 1.68412541
O 0.62382522 1.53307455 2.35773168
H -1.57408926 -0.85444047 -1.42577340
H 1.51633733 -1.08052206 0.81422237
H 0.21307375 -0.74941783 -1.60952665
H 0.03761513 1.38976222 -0.91576694
