10

O -0.21597935 1.3855883 1.2385453
C -0.08711725 -1.1658335 0.3821344
C -0.29594293 -1.2057776 -1.0656401
O -0.12926202 -0.09608291 -1.604541
C 0.4066931 1.1776285 0.09250665
O -0.81272805 -1.3133034 1.3330712
H 1.42679 0.8076827 0.07966247
H 0.102776304 1.9069103 -0.6515659
H -0.0856409 0.63371205 1.8460294
H -0.30958888 -2.1305246 -1.6502025
