10

O -1.3667862 -0.59010744 2.4661798
C -0.4907512 -0.6346899 1.7017678
C 0.16611488 0.2384779 -1.2586155
O -0.9755224 0.9614547 -0.95066416
C 0.5235547 -0.6630276 0.86036843
O 0.2931892 -0.94203913 -0.47956324
H 0.061644726 -0.11421948 -2.2855654
H 1.5391033 -0.5305544 1.2163215
H -0.8330701 1.4363364 -0.12006195
H 1.0825232 0.83836895 -1.1501672
