11

O 1.6434746 0.52508456 -0.6089772
C -0.51678467 -0.6051546 -1.0519166
C -0.30038798 -0.1324052 0.8325521
N -1.0019138 -1.0505619 0.28858355
C 0.25770658 0.5540427 -0.38460866
O -0.13451408 0.15604782 2.1273067
H 2.0637417 1.1588411 -0.016821712
H 0.14204516 -1.335155 -1.5274888
H -1.329284 -0.31924608 -1.7258877
H -0.18029416 1.5453544 -0.56528866
H -0.6437893 -0.4968475 2.6325471
