11

O -0.45211282 0.106288716 2.205266
C -0.10528369 0.24690054 0.9896934
C -0.37590247 0.37028018 -1.012209
N -1.0351241 0.79364026 0.2605256
C 0.8541041 -0.08719103 -0.14957269
O 1.3726944 -1.3690335 -0.2701885
H -0.8818737 -0.46917444 -1.5026433
H 0.67423284 -2.0113604 -0.091188006
H -0.20972592 1.1871114 -1.7194457
H -1.5323497 0.62272453 1.5029463
H 1.691341 0.6098138 -0.2131842
