12

O -0.66483474 1.4871253 -0.8142521
C 0.18581787 0.41560233 -1.1327554
C 0.48278946 -0.40260506 0.12270949
O 1.0380573 0.45341313 1.0863894
C -0.7913591 -1.0135317 0.66814685
O -1.1337669 -0.8254487 1.8115202
H -0.2585313 1.9182025 -0.047164187
H 1.1384184 0.7555276 -1.5622598
H -0.3262795 -0.2001986 -1.8811952
H 1.1691145 -1.2289225 -0.13018689
H 0.5333116 0.29333213 1.9015698
H -1.3727378 -1.6524962 -0.022522645
