12

O -0.07091619 1.34949938 -1.02385578
C -0.11606032 -0.04959637 -1.00480704
C 0.73140496 -0.70473593 0.05688536
O 1.46658787 0.19584452 0.83432605
C -0.76780733 -0.62494963 0.22677589
O -1.17827622 0.32446221 1.17290222
H -1.27717695 1.15488707 0.67577126
H 0.75195596 1.58386983 -0.56258297
H -0.26407030 -0.51603660 -1.97418113
H 1.22984985 -1.65006510 -0.13613227
H 0.87260373 0.45853309 1.55858643
H -1.37809527 -1.52171225 0.17631149
