9

O -1.4863847 -1.8146648 0.62299645
C -0.941819 -0.76739305 0.44521093
N -0.7507296 0.47848922 0.8964042
C 1.3965428 0.11367904 -0.4115569
C -0.10322122 0.13123877 -0.40414435
O 2.078306 0.3130303 0.5593726
H -1.4624596 1.1841947 1.0283438
H -0.56723124 0.4709472 -1.3311654
H 1.8369966 -0.1095214 -1.4054615
