11

C 0.53442746 0.15458626 1.4392588
N 1.1076982 0.8964642 0.33168328
C -0.34447542 -0.042413045 -1.189918
C -1.444618 -0.62895125 -1.6009954
N 0.7100472 0.53125554 -0.94544804
H 2.1157594 0.9072454 0.32660717
H 0.6468551 -0.9339983 1.3305912
H -0.53338146 0.38423783 1.5079602
H -1.4764152 -1.7022129 -1.7447037
H 1.0191424 0.4805911 2.3618474
H -2.3350399 -0.046804696 -1.8168824
