10

C 0.69893247 0.66721165 0.06395276
O -0.87771245 0.06949632 -1.61350337
C -0.32582667 -0.06551853 -0.38123122
O 1.28248945 0.34629638 1.28563450
N -0.97592837 -1.03077329 0.37287621
H 1.02374382 1.02443155 1.92440243
H 1.14393076 1.46199734 -0.52920411
H -0.29921049 0.62730443 -2.14841754
H -1.23028535 -1.84383224 -0.17315694
H -0.44013316 -1.25661416 1.19864723
