9

N -0.80918616 1.8459126 -0.12798236
C -0.10950774 0.81155956 -0.34972987
N -0.23367566 -0.30826557 0.45828378
C 0.4809701 -1.4723371 0.30001673
O 0.36625376 -2.4391537 1.0115101
H -0.5990546 2.5726156 -0.80503654
H 0.6271486 0.68262154 -1.1490693
H -0.900633 -0.2628327 1.2174644
H 1.1776844 -1.4301201 -0.5554569
