9

N -0.15186498 -1.3261949 0.31022465
C 0.5878903 -0.2668246 -0.24381685
N 0.47162372 1.1300106 0.14438395
C -0.71417975 0.6606676 -0.47809988
O -1.5151618 0.018322436 0.3215857
H 0.30284178 1.2211564 1.1421009
H 1.5613782 -0.532798 -0.66444796
H -1.0124447 0.9651849 -1.4805033
H 0.46991685 -1.8695245 0.9485729
