12

C 0.5582533 -0.6496797 -1.8489789
C -0.08142081 -0.74141574 -0.480106
O -0.6075758 -1.7433989 -0.049120057
N 0.007900134 0.4226288 0.2685583
C -0.47473416 0.5406487 1.5637445
N -0.34639472 1.6429617 2.1775153
H 0.13807163 -1.4293526 -2.4829721
H 0.40040627 0.32991195 -2.3130567
H 1.6381027 -0.81732756 -1.7584933
H 0.45258224 1.2443509 -0.11952114
H -0.93694854 -0.37496206 1.9344586
H -0.74824244 1.5756345 3.107971
