12

C 0.90794690 0.22967032 -2.24409884
C 0.20757586 0.24038715 0.07351621
O -1.46435343 -0.53031387 3.11310959
N 0.21627923 -0.19002304 -1.19256806
C -0.73240636 0.00508679 2.30515325
N -0.62581918 -0.35951904 0.99932652
H -0.41870203 -0.96833329 -1.37149179
H 0.76303164 -0.27453780 -3.18572466
H 0.82196192 1.08839173 0.33840664
H 1.60176782 1.04883495 -2.12096755
H -1.21111908 -1.14302046 0.73255062
H -0.06616347 0.85337655 2.55278757
