11

N 1.0360572 -0.018415634 -1.5502026
C 0.2793283 -0.02589396 -0.37408584
C -0.37792245 0.9693561 0.31823882
C -0.8748245 0.31750214 1.4694637
N -0.5710489 -0.9659153 1.4946868
N 0.13558559 -1.1561433 0.36033818
H 1.0261806 0.89498043 -1.9856987
H 0.73567426 -0.7104593 -2.2256482
H -0.4863875 2.0047274 0.0330896
H -1.4524667 0.7461364 2.277654
H 0.5498242 -2.055875 0.18216415
