11

N 1.5949069 0.7978958 0.733929
C 0.5040277 0.19832335 0.13162965
C -1.5103576 -0.48797062 -0.44114885
C -0.854486 0.5140295 0.25964326
N -0.65462446 -1.3162702 -1.0531398
N 0.6787127 -0.86007595 -0.6754756
H 1.4722434 1.7787805 0.93951404
H -2.574859 -0.6480651 -0.5534071
H 2.462261 0.61199707 0.2527073
H -1.2895997 1.3494412 0.79041743
H 0.17177501 -1.9380851 -0.38466924
