10

O 1.4478309 -1.2702127 0.8713419
C 0.5468093 -0.45637763 0.32271934
C 0.8823916 0.89418775 0.086501904
N 0.008577069 1.7126249 -0.45353165
N -1.208722 1.2591777 -0.7813186
C -1.4661263 -0.011691525 -0.5369183
N -0.6399999 -0.91863424 0.0097076185
H 1.031175 -2.1433344 0.95166886
H 1.8574919 1.2944661 0.33794293
H -2.4594276 -0.3602061 -0.80811405
