10

O -0.25168243 2.09563493 -0.61193256
C -1.04472948 -0.11201118 -0.34197066
C 1.46860779 -0.72603703 0.69869005
N 1.17674779 0.56698198 0.26964298
N 0.40438507 -1.55481310 0.53288649
C 0.00436423 0.84565474 -0.21237143
N -0.83145903 -1.33163323 0.03983371
H 0.52742805 -2.51719261 0.81884796
H 0.56524598 2.59812492 -0.44769163
H -2.01890800 0.13529044 -0.74593495
