9

N -0.7231531 -1.1754951 -0.1928196
C -0.60714895 -0.3389603 0.7616408
C 0.80489004 0.4590902 -0.9831803
C 0.33459994 0.7787358 0.4219599
N 0.13969254 -0.6496671 -1.2051495
H -1.1554602 -0.47846112 1.6862988
H -0.15068446 1.7614853 0.45020005
H 1.1839283 0.8416867 1.1134039
H 0.17333597 -1.1984143 -2.052354
