12

O -1.1692172 -0.90727276 -0.842999
C -0.87087744 0.3732222 -0.36762017
C 0.6011226 0.714837 -0.39119726
O 1.4399201 -0.31827387 -0.82688564
C -0.08380039 0.42616922 0.9181638
O 0.1874713 -0.8354783 1.4588745
H -1.0646693 -1.4952502 -0.076078564
H 0.865212 -0.90544295 -1.3464504
H -1.6166157 1.1283944 -0.6001128
H 1.0291806 -1.1045008 1.0514171
H 0.9485779 1.7152283 -0.6267143
H -0.26630476 1.2083676 1.6496028
