13

N -0.39984141 0.09751263 -1.52495667
C -0.37553047 -0.56345033 -0.23869256
C -1.73171777 -1.01288336 0.11117405
N -2.78668651 -1.39452571 0.38897084
C 0.14831049 0.41834965 0.82243608
N 1.47094940 0.87181032 0.40674806
H -0.58998663 -0.55792235 -2.27357387
H 0.26003263 -1.46626051 -0.21282000
H 0.50025004 0.54205483 -1.65981313
H 2.16207503 0.15265622 0.61192093
H -0.52837595 1.27862975 0.83858527
H 1.74398814 1.69969697 0.92104486
H 0.12653297 -0.06566783 1.80897568
