13

N -0.63588154 0.21724683 -3.1124625
C 0.2492778 -0.05304743 -0.70720214
C -0.1665631 0.9196571 0.35790104
N -0.039277587 -1.5408913 -0.21679324
C -0.25605172 0.107212916 -2.0193722
N 0.4293479 0.50126046 1.6291176
H -0.059962917 -1.4909952 0.7977344
H -1.25964 0.9099358 0.5183924
H 0.10942456 1.9338237 0.035258986
H 1.4305153 0.6625114 1.5924911
H -0.8407865 -1.9973794 -0.64643604
H 0.05957694 1.0520158 2.397636
H 0.98002076 -1.221351 -0.6262653
