10

O -1.7661545 -1.1089003 1.2153746
C -0.87801456 -0.54977727 0.60425806
N -0.86643845 -0.14103647 -0.7197901
C 0.3470636 0.4654639 -1.051349
C 1.1133039 0.450534 0.04892064
N 0.37032458 -0.16555896 1.0588975
H -1.6501791 -0.2828159 -1.3333725
H 0.54562217 0.8476506 -2.039973
H 2.1139748 0.81644714 0.21324539
H 0.6704971 -0.3320067 2.0037887
