9

O 1.81897401 -0.79920061 -1.01918998
C 0.71822748 -0.29932032 -0.42594316
C -0.95623823 0.11925593 0.91876090
O -0.97951664 1.03271273 -0.22289185
C 0.17306861 -0.78892353 0.80740358
N 0.06485862 0.70092489 -0.97439576
H 1.97533232 -0.29334236 -1.82870427
H -1.91405553 -0.41303075 0.92511429
H -0.90065055 0.74092373 1.81984606
