9

O 1.9825933 -0.55353093 -0.86548454
C 0.5614224 0.3145173 0.9434709
C 0.77441645 -0.2292358 -0.36688012
O -1.382401 -0.018191697 -0.40529722
C -0.88494635 0.44697112 0.88871926
N -0.31039587 -0.40552098 -1.0881896
H 1.8523738 -0.8915 -1.7624091
H -1.3830715 -0.15174928 1.6595556
H -1.2099912 1.4882402 0.9965147
