11

O -0.66631573 1.6215352 -2.182477
C -0.01993987 -1.4467653 0.60269034
N 0.06735685 0.76999533 -0.19093306
C -0.14951016 1.7879018 -1.1106796
C -0.27187255 -0.5215551 -0.3950307
C 0.6076137 -0.9278514 1.7540919
H 0.78186107 -1.7390846 2.4799247
H 0.20507468 2.7677963 -0.7481979
H 0.49173734 0.9007657 0.7355871
H -0.31592786 -2.4803205 0.41244528
H -0.73007745 -0.73241746 -1.357421
