10

N 0.2818117 1.1622628 -1.0236752
C -0.77954626 1.4735868 -0.64820665
O 0.61305726 -1.8037436 0.97454214
C 0.9851246 -0.03810296 -0.5324793
C 0.109543346 -0.78323144 0.51581895
N -1.0583421 -0.18458095 0.7433084
H -1.6506194 1.252166 0.023785776
H 1.1943624 -0.68333924 -1.3873177
H 1.9313658 0.2790902 -0.09072623
H -1.6267573 -0.6741076 1.4249496
