12

O 1.33201531 1.30799163 -0.32068399
N 1.60837859 0.00364347 -1.33560797
C -0.93086190 0.12809899 -0.52890505
C 0.38750834 -0.67400963 0.92191522
N -1.01306370 -0.19235326 0.90817161
C 0.60210645 0.02577393 -0.42232225
H 0.89558138 1.94277982 -0.91083089
H -1.69687462 -0.90400691 1.14264499
H 0.99091403 -0.32683003 1.76640138
H 0.50588748 -1.75908826 0.80077346
H -1.31219299 -0.64595542 -1.20829204
H -1.36939879 1.09395577 -0.81326456
