12

N 0.22215275 0.81812960 1.04440180
C 1.06621407 0.49119901 -1.19403745
N 0.73872466 -0.58387758 0.77498073
C 1.55135749 -0.47076129 -0.41986056
C -0.62409005 -0.13385181 0.43142780
C -0.11085453 0.96909434 -0.41529003
N -1.86301758 -0.54748177 0.88575771
H 1.41786471 0.85977278 -2.14662707
H 2.40168171 -1.12952901 -0.52752272
H -1.85623556 -0.74549815 1.87950299
H -2.21112774 -1.34647133 0.36873544
H -0.73266995 1.81927484 -0.68146853
