12

N 2.1666133 0.3910116 -0.69668645
C 0.8849541 0.165716 -0.28268114
N 0.70428485 -0.840358 0.5860732
C -0.5399476 -1.0242236 1.0066404
C -1.6081159 -0.23909386 0.5854422
C -1.2945155 0.76596636 -0.3199567
N -0.061576277 0.9828677 -0.7677861
H 2.291578 0.96253777 -1.5156434
H 2.8343675 -0.34403482 -0.52878624
H -0.6905009 -1.8420897 1.7087798
H -2.6197755 -0.4046335 0.9367255
H -2.0673661 1.4263337 -0.71212095
