10

C -0.2221813 0.9749607 -0.37100807
C -0.62702817 -0.038050015 -1.2373863
N -0.4557152 -1.3346347 -0.9884664
N 0.1304048 -1.7132298 0.14057282
C 0.5386604 -0.78770095 1.0064998
C 0.38894758 0.5815254 0.8037996
H -0.3860523 2.0190175 -0.6188072
H -1.1161071 0.18440439 -2.1827886
H 1.0090156 -1.1810813 1.9053439
H 0.7400558 1.2947886 1.542241
