10

C 0.3420853 -0.42022845 -0.91200614
C -0.9915711 -0.31585497 -0.31909025
N -1.4738446 0.8972099 0.20495802
N -0.5446517 1.3920808 0.9595955
C 1.2349637 0.14562841 -0.05850321
C 0.27585936 0.28392008 1.0122272
H 0.53047585 -0.89803463 -1.8722069
H -1.7682539 -1.0207081 -0.6122932
H 2.2731364 0.42182457 -0.17495836
H 0.12180101 -0.48583755 1.7722774
