10

C 0.05915312 0.58391951 -0.72961344
C -1.15772677 -0.16732126 -0.23581311
N 1.07386451 -0.29390418 -1.40416903
N 1.62651576 -0.64911092 -0.33901186
C -0.56643334 -0.54343539 0.90307904
C 0.73388140 0.14972476 0.56622337
H -0.00076819 1.60476779 -1.10354841
H -2.13207856 -0.34793606 -0.67434289
H -0.87671505 -1.14534656 1.74899282
H 1.24030724 0.80864215 1.26820406
