12

N -0.48628845 0.39677050 0.32508313
C -0.58684369 -0.70655378 1.49861477
O 0.88860824 1.95491862 -0.51480577
N 1.49875684 -0.21066042 -0.92405279
C 0.69464709 0.62419590 -0.43030200
C -1.24123255 -0.87615029 0.18139882
H -2.31505139 -0.69535208 0.10035415
H 0.41227824 -1.16231571 1.47712046
H -1.00194360 1.24167366 0.53110990
H 1.74735468 2.07163941 -0.94853316
H -0.86481908 -1.47675609 -0.65495544
H 1.25453370 -1.16140953 -0.64103255
