10

O 2.1160488 0.40439215 0.11908801
C -1.2324985 0.19792715 1.0819409
C 0.22831154 -0.26156253 -1.1145794
N 0.12934107 0.2660412 1.2385325
N -1.0508151 -0.4864011 -1.2185274
C 0.80603206 0.1663436 0.12315563
N -1.773438 -0.10137968 -0.13194986
H 2.34956 0.64538985 1.031759
H 0.8604537 -0.4638058 -1.9722844
H -2.4329956 -0.3669449 0.8428651
