10

N -1.1919224 0.7612828 -0.18847586
C 0.8181823 -0.22273251 0.3339545
C -0.14379162 0.9011655 0.51626736
N 1.9509869 -0.47320375 0.827385
C -1.0310332 -0.476385 -0.91906023
O 0.22299643 -1.0505129 -0.5556479
H -1.8387494 -1.1693323 -0.6646987
H 2.236405 0.26322287 1.4688605
H -1.0443184 -0.28188953 -1.9953761
H 0.021244714 1.7483847 1.1767912
