10

N -0.82258165 0.87065816 1.3551869
C -0.1699619 0.1777547 0.34897158
C 0.3519483 -1.0658053 0.21137735
N 0.98515743 -1.146483 -1.0270463
C 0.80914474 0.009116221 -1.5522528
O 0.11273391 0.88380504 -0.7726803
H -1.5001456 1.5359787 1.00654
H -1.231083 0.26180923 2.0500607
H 0.33113328 -1.9020731 0.89519083
H 1.1336546 0.37523928 -2.515348
