10

N -0.43517734 1.30367338 0.38315810
C -0.06618823 0.26332832 1.01271152
C 0.29072535 -0.85815454 0.09801626
N 0.69676449 -2.03478736 0.29832400
C -0.35712869 0.97907663 -1.02396869
O 0.08847041 -0.37015062 -1.14769805
H -0.02203582 0.20766100 2.09726711
H -1.34264758 1.08348009 -1.48779372
H 0.79472862 -2.21846074 1.29428865
H 0.35248890 1.64433376 -1.52430522
