9

O 0.7547656 0.2497821 -2.0779474
C 0.26544964 0.11035466 -0.8372963
N 0.98893 -0.31548706 0.1768077
N 0.07694661 -0.28453752 1.1815802
C -1.1043657 0.14627196 0.72093624
N -1.0272292 0.41020766 -0.5682631
H 1.6850507 -0.0072916397 -2.0522635
H 0.34238943 -0.5625194 2.1119616
H -1.9819369 0.25321913 1.3444847
