11

N 1.3515189 1.3889377 0.0074228426
C 0.13011295 0.46850023 1.1208979
C -1.1465857 0.5305871 0.28539237
O -0.85243404 -0.40324414 -0.76531476
C 0.5157112 -0.8338116 -0.8491301
C 1.2082491 0.16781075 0.065909654
N 0.66543895 -0.41414788 1.7938484
H 0.8573142 -0.7206169 -1.8780153
H -1.9975803 0.162179 0.85809106
H -1.3382418 1.519656 -0.13535301
H 0.6064967 -1.8658503 -0.5037492
