11

N 0.17055297 0.8912102 1.4906112
C 0.63505524 -0.33497232 1.0315814
C -0.78968686 0.044270013 0.9811622
O 0.08425371 0.15236765 -1.143412
C 1.2355605 -0.2494113 -0.3726115
C -1.1669745 0.36839354 -0.47185752
N -0.38066375 -1.2709869 1.1298101
H 2.009803 0.5173155 -0.44156522
H -1.9149759 -0.31630722 -0.87649304
H 1.5907311 -1.2117367 -0.7470892
H -1.4736558 1.4098576 -0.5801368
