10

N 0.90025324 -0.942582 -1.2194752
C 0.27413926 -0.13714324 -0.43457463
N 0.78803617 0.5309459 -1.6140124
O -0.5083863 -1.8789935 1.6370625
C -0.4243364 0.27256343 0.65178746
C -0.78396356 -0.6953206 1.6671064
H 1.6426281 1.0730351 -1.5584828
H -1.3553139 -0.27059358 2.5213194
H -0.70253694 1.3152514 0.7396656
H 0.16948023 0.732837 -2.390396
