10

N 0.57137996 -1.3654577 0.08219023
C -0.78491694 0.4109024 1.5655811
N 0.8531191 -0.58847255 -1.5287588
O -0.42736384 -0.70930654 1.9549122
C -0.47113073 0.84290767 0.23998496
C 0.2158376 -0.1963438 -0.32675245
H -1.345328 1.074068 2.245062
H -0.7198543 1.782406 -0.2266578
H 0.30798426 -0.9533417 -2.2935405
H 1.800273 -0.2973617 -1.7120214
