11

C 1.94307204 0.37763412 -1.72651398
N 1.10695203 0.41140371 -0.90236210
C 0.18415480 -0.70782699 1.04726937
C 0.01948809 0.43728754 0.05725343
N -1.27009104 0.38518915 -0.58136122
H 0.09721011 1.39576861 0.58009962
H 0.12357631 -1.67110061 0.52910181
H 1.15145310 -0.64588703 1.55284651
H -1.37540515 1.15099420 -1.23581232
H -1.36272275 -0.47922206 -1.10961296
H -0.61768752 -0.65424011 1.78909196
