11

C -0.47268912 0.86399543 0.77350354
N 0.35838127 0.080534466 -1.386559
C 0.40452516 -1.9793572 0.48916653
C -0.31415194 -0.23227352 -0.24712917
N 1.12863 -1.221581 1.0473697
H -0.86717045 0.4593178 1.706485
H -1.2218988 -0.79235953 -0.4335395
H 0.4359359 -0.6745702 -2.0556178
H 1.2493659 0.5410679 -1.2446193
H 0.47928718 1.3574688 0.98426294
H -1.1802152 1.5977571 0.36667702
