10

O 0.4624419 -2.328063 -0.4379185
C -0.8976191 -0.201135 -0.26046777
C 0.3564449 -1.1375306 -0.19331902
N 0.00890985 0.9187652 0.22124599
C 1.1339308 -0.05950893 0.22277166
H 0.076771654 1.6986107 -0.4374649
H -1.3015076 0.019037502 -1.2504826
H -1.7003862 -0.38986462 0.45568267
H 2.1340356 0.18132478 0.5512346
H -0.27302164 1.2983638 1.1287175
