10

O 1.4954245 -1.7830948 0.06642609
C -0.67155045 -0.59715205 -0.43401846
C 0.9230116 0.5894878 0.38460162
N -0.60476923 0.8382166 -0.07951805
C 0.7885702 -0.8003023 0.03677584
H 0.31420013 1.3261532 -0.58273953
H -1.24441 1.2454259 0.58849305
H -1.3734174 -1.1098458 0.2285119
H 1.2982773 1.082646 1.270959
H -0.9253364 -0.79153454 -1.4794916
