10

O 0.8681692 0.91223747 -1.9855235
C 1.1762928 -0.5889307 -0.13080777
C -1.0508806 -0.08330982 0.65278447
N 0.12505242 -0.7505558 1.0101385
C 0.42015094 0.31161833 -0.86120033
N -0.87467444 0.56664425 -0.4492667
H -1.9451686 -0.09223765 1.2632368
H 0.14458343 -1.5936251 1.5689657
H 1.0012873 -0.10578875 1.2806504
H 0.13518752 1.423948 -2.3489776
