10

O 0.36749357 2.28054362 0.68692483
C 0.02735396 1.03299757 0.29179903
C -1.22408164 0.59267202 0.01429738
N -0.84524502 -0.85361519 -0.34553669
C 0.62038693 -0.99279149 -0.20107777
N 1.11614630 0.11036830 0.16527045
H 1.32330431 2.29648935 0.82014502
H -1.15758986 -1.04842239 -1.29912645
H -1.35886543 -1.49109823 0.26593987
H 1.13109695 -1.92714318 -0.39863553
