12

O 0.9429448 0.48890057 -1.3280118
C -0.3226532 0.59380984 0.7624815
C 0.090901755 -0.84164894 0.5568862
O -0.5926407 -1.5169712 -0.46201572
C 0.97670925 0.27574402 0.056732837
O -1.3661478 1.0064096 -0.07056048
H -0.93711054 1.2987791 -0.89392364
H -0.3352993 1.0309579 1.7572521
H -1.415323 -1.0143768 -0.5957354
H 0.40906656 -1.466089 1.3874784
H 0.619494 -0.3502628 -1.700422
H 1.9300581 0.4947473 0.529838
