12

O 0.83746599 1.21318136 -0.84771796
C 0.89791916 0.38468915 0.28101564
C -0.44749570 0.09864623 0.91000539
O -1.54364583 0.66203704 0.25112440
C 0.25613020 -0.97342153 0.11664522
O -0.26087204 -1.20020863 -1.16504424
H 0.69885111 0.60486876 -1.59487701
H -1.17441687 1.37738404 -0.29607614
H 1.77970935 0.52069424 0.90118791
H -0.56211715 0.00756604 1.98675663
H -1.16797391 -0.84820347 -1.14166015
H 0.68644563 -1.84723328 0.59864034
