12

O 1.0444099 1.1006149 -1.0121158
C 0.60099125 1.0156167 0.31802037
C -0.447039 -0.08866708 0.4485481
O -1.4924105 0.18731974 -0.44788235
C 0.15592986 -1.4379513 0.114547
O -0.32809743 -2.1479344 -0.7360446
H 0.2384693 1.1338428 -1.5501535
H 0.16071858 1.9589119 0.66874033
H 1.473973 0.79329246 0.9436396
H -0.807186 -0.13170877 1.4907632
H -1.6426581 -0.6385189 -0.93804973
H 1.0428991 -1.7448181 0.6999874
