9

O -0.86152825 1.10957034 -0.23596179
C -1.37014809 -0.45470933 1.08969381
C 0.03420662 0.13159495 -0.26213789
N -1.81431094 0.70220013 0.69926476
C 2.25395110 -0.04813528 -0.76711866
N -0.19792677 -0.87531929 0.50816684
O 1.03910729 0.31621261 -1.15948268
H -1.90700966 -1.03291171 1.82864424
H 2.82365907 0.15149756 -1.70106865
