9

O -0.72340846 -0.9368686 -1.3665115
C -0.07326923 -0.19004957 -0.29922223
C -0.53998494 0.24112143 -1.8334743
N 1.4627632 -0.1066809 1.263024
C 0.28517303 0.25468445 1.6771823
N -0.7364852 0.20139588 0.7743005
O 1.210781 -0.4545609 -0.10363393
H -1.030751 0.41634098 -2.814111
H 0.14518154 0.5746172 2.7024462
