9

O -2.5735056 0.67592317 0.29188398
C -1.6295706 0.09762386 0.76274496
C -0.29952013 0.045409273 0.09648174
N 0.7632337 -0.548777 0.5435252
C 1.659996 -0.27980724 -0.45555586
N 1.1828016 0.42373705 -1.4392738
O -0.1290318 0.64627856 -1.0765212
H -1.6623496 -0.44524524 1.7241391
H 2.6879468 -0.61514246 -0.44742414
