9

O 0.08160216 -0.35481298 1.3771362
C -0.43145353 -1.6051625 -1.7053987
C 0.12603433 -0.2613879 0.054729484
N -0.012376681 0.9623046 1.829644
C 0.0015889963 1.6547285 0.7303219
N 0.09412443 0.9306541 -0.43429935
O 0.26667884 -1.4522209 -0.5865759
H -0.06860739 -2.6079345 -2.0207937
H -0.057591144 2.7338314 0.75523597
