11

N 0.104388446 0.7126174 -1.7193353
C -0.0039916905 0.1681247 -0.43680248
C 0.8895528 -0.5047024 0.3684428
C 0.12935571 -0.8596999 1.5070928
N -1.1180724 -0.44213703 1.4321208
N -1.1806042 0.18392512 0.2361258
H 1.0497653 0.6347518 -2.071946
H -0.19782989 1.6782377 -1.7748832
H 1.9325517 -0.7018674 0.16866885
H 0.46114016 -1.400213 2.3837388
H -2.0662563 0.5309629 -0.09322278
