10

O 0.23260954 -1.38029487 0.19517340
C 0.55402716 -0.27596217 -0.65961262
C 0.52244736 0.88306298 0.35337005
O -0.72381573 0.49234215 0.98019724
C -0.98747982 -0.64594220 0.20808296
O -0.79562373 -0.23419784 -1.14284464
H 1.33698404 0.85896695 1.08164676
H 1.34801073 -0.41560545 -1.39158743
H -1.91020063 -1.15038430 0.48324579
H 0.42304106 1.86801452 -0.10767166
