10

O -0.7477632 1.0699984 -0.15182343
C -0.92136985 -0.18786736 -0.74258983
C 0.44719934 0.77607584 0.6126508
O 0.36148268 -0.54164475 -1.2529608
C 0.5617584 -0.6908289 0.15928872
O -0.79457337 -1.1229964 0.3239536
H 0.2528566 0.896958 1.681321
H 1.2751693 1.4055829 0.27984872
H 1.3519266 -1.363796 0.4886013
H -1.7866865 -0.2414815 -1.39829
