10

O -0.15867805 1.0842171 0.8990659
C 0.9118257 0.17954388 0.175602
C -0.861311 0.8968562 -0.19849461
O -1.1860558 -0.36711544 -0.44304097
C -0.009946409 -1.0581218 0.05898783
O 0.9323367 0.84494114 -0.9543037
H -0.24535513 -1.5455327 1.0054511
H -1.5200101 1.6521809 -0.61962
H 1.8218899 0.0798796 0.779894
H 0.31530413 -1.766849 -0.70354146
