11

C -0.28456585 1.16963522 -0.13466844
N -0.07984279 -0.15472801 -0.05879206
C -0.83791126 -1.24890890 -0.63299724
N 1.02100539 -0.40777555 0.67755280
C 1.41986778 0.80464267 1.00509720
N 0.65240481 1.81723154 0.53316796
H 2.30378027 0.96534520 1.61021206
H -1.11081903 1.61267741 -0.67223456
H -1.70257670 -0.83946963 -1.16026059
H -1.17280395 -1.91508112 0.16454764
H -0.20853881 -1.80356887 -1.33162470
