11

C -0.9911495 1.1408381 0.30905792
N 0.31426787 0.8631768 0.3885597
C 1.2456083 -0.20775972 -0.8814528
N -1.7759967 0.11312974 0.6517406
C -0.9005253 -0.8685455 0.8898898
N 0.37373486 -0.47651795 0.7786227
H 1.0504252 -1.241229 -1.1568627
H 2.2512305 -0.046147756 -0.51309973
H -1.1716982 -1.8757064 1.1780554
H 0.9590571 0.47728768 -1.6754595
H -1.3549546 2.1214743 0.030948779
