9

O -1.1558564 -1.286992 -1.0807408
C -0.3787738 -0.47359967 -0.34686726
C 0.478591 -0.7906693 0.6533545
O 1.0296097 0.39519325 1.083059
C 0.46907657 1.3321266 0.31559297
N -0.37681776 0.8870616 -0.5550165
H -1.6327032 -0.72634536 -1.7059064
H 0.7984772 -1.6925038 1.1461722
H 0.7683967 2.3557289 0.49035245
