9

O 0.5674054 -0.14474033 2.4156146
C 0.19624507 0.6530486 1.3774974
C -0.20085733 -0.37229443 -2.0249925
O 0.2766629 0.4582734 -2.7437277
C -0.29406 0.27149552 0.21705347
N -0.8711738 -0.09229347 -0.8100864
H -0.25528866 -1.4471524 -2.2745893
H 0.21279553 -1.0337049 2.286238
H 0.36827075 1.707368 1.5569928
