9

O -0.7087478 0.59318775 -1.6827719
C 0.5851087 1.1955217 -0.8019211
C 0.09917083 -1.0773112 1.5015489
O 1.1825796 -0.6248624 1.7845372
C -0.11599096 0.13201569 -0.3688114
N -0.64838326 -0.75074494 0.35982293
H -1.4537151 1.1877966 -1.5200827
H -0.4210449 -1.8129222 2.1367261
H 1.4810228 1.1573191 -1.409048
