11

C -0.45740577 -0.26387677 1.45921196
N -1.39241894 -0.21078493 0.60615991
C 0.78962159 -0.10217869 -0.39127101
O 0.83007080 -0.30918150 1.03740878
C -0.71910024 -0.25207013 -0.69480056
O 1.35516254 1.11536341 -0.72538615
H 0.76592429 1.82670747 -0.44558793
H -0.58388772 -0.29104861 2.53768072
H -1.07422025 0.55114743 -1.34645406
H 1.42884775 -0.85970124 -0.84871643
H -0.94259402 -1.20437674 -1.18824535
