11

C -0.7752041 0.8787568 1.5455323
N 0.5815215 0.51192224 1.1796838
C 0.83757 -0.056211226 0.09549915
O -0.14180723 -0.3916921 -0.83833504
C 0.2525798 -1.0257683 -1.9665691
O 1.3770839 -1.3323133 -2.239875
H -0.78517205 1.9535229 1.7503349
H -1.0194306 0.36786926 2.4814205
H -1.5399096 0.64417857 0.7971313
H 1.841956 -0.33655056 -0.20887023
H -0.6291876 -1.2137146 -2.5959527
