11

C -0.055420853 0.96046406 0.42002976
N 1.31721 0.6680296 0.11319377
C 1.3584764 -0.37810045 -0.60715497
O 0.23499076 -1.0436743 -0.949523
C -0.89037204 -0.659853 -0.17239906
O -1.1745372 -1.3620641 0.87873477
H -1.6765965 -0.3124336 -0.8545665
H 2.2690494 -0.80499494 -1.0165403
H -0.7159127 -0.10204598 1.0052062
H -0.50742745 1.6857436 -0.2616213
H -0.15945965 1.3489293 1.4446409
