11

O -0.38516757 1.9352992 -1.2264948
C 0.27771145 0.8951522 0.8679238
N -0.27641216 -0.42931637 -0.84570605
C 0.05319511 -1.2059867 0.1869572
O -0.048883613 -2.4416165 -0.14686558
C -0.13732873 0.8814945 -0.42988274
N 0.39329356 -0.46944493 1.253896
H 0.681206 -0.82628965 2.1476789
H -0.6614912 1.6106148 -2.0918946
H 0.498099 1.7122353 1.5358887
H -0.39422172 -1.6621418 -1.2515008
