11

O -0.8193381 -2.0411582 0.3764212
C 0.8033192 1.2075036 0.27860972
N 0.6378862 -0.15530187 0.80295676
C -0.32856506 -0.808804 0.1462338
O 1.6344789 1.9695735 0.75814414
C -0.15856405 1.247035 -0.74095714
N -0.80619675 -0.0063018464 -0.7761117
H -1.5328805 -0.2854939 -1.4163895
H -0.43891 2.045318 -1.4049615
H -0.10754885 -2.6965063 0.34555957
H 1.1163192 -0.4758639 1.6304945
