11

N -1.10165244 -1.06167977 -0.85389785
C -1.17591795 -0.32081147 0.30154669
C -0.66852971 1.12244785 0.14028927
O 0.70982984 0.89314938 -0.20699684
C -0.06767090 -1.25255885 0.05714430
C 1.19438370 -0.45602545 -0.29196694
N -0.53785706 -0.99621125 1.32769836
H -1.16694048 1.64638035 -0.67769396
H -0.72199019 1.68813432 1.07250240
H 1.99427536 -0.60165696 0.43785870
H 1.54206972 -0.66116819 -1.30648349
