11

N -0.47457927 1.5676409 -1.0025164
C -0.6745956 0.35121202 -0.97934216
C 0.4684082 0.37908077 1.1498257
O 0.98759145 -0.6267605 0.2736974
C 0.27058348 -0.83938164 -0.94596934
C -0.9040342 0.63260525 0.542151
N -1.871237 -0.09723625 0.37112096
H -0.24824919 -1.8000463 -0.91775453
H 0.36040592 -0.038666837 2.1510317
H 1.1182748 1.2573154 1.140793
H 0.9674316 -0.7857629 -1.7830372
