11

N -1.9978907 -0.52447474 -1.9141613
C -1.5739838 0.026586965 -0.9923607
C -0.9986827 0.6972438 0.19369219
O -0.31334618 -0.20385699 1.0287858
C 0.8045095 -0.8212061 0.43851462
C 1.8563854 0.15464443 0.08032194
N 2.651555 0.9414864 -0.20274478
H -1.804873 1.1186708 0.79565084
H -0.34560952 1.5141115 -0.14541793
H 1.1957098 -1.5188695 1.1809745
H 0.5262261 -1.3843366 -0.46325454
