12

O 0.50879574 0.87951386 0.96956503
C 0.7976327 -0.4140215 0.38980857
C -0.03983421 1.8158509 0.20555645
O -0.82693756 -1.0040976 -1.3579817
C -0.43561846 -1.2074063 -0.029984068
O -0.41765648 1.695296 -0.9332683
H 1.4676651 -0.28673893 -0.4661423
H -0.8655996 -0.044453036 -1.5031068
H -0.18279095 -2.2694871 0.06112313
H -0.08628732 2.7549405 0.7719012
H 1.3253838 -0.91833836 1.2018688
H -1.2447525 -1.0010585 0.69066
