12

O 1.1452386 0.7102316 0.11520175
C -0.21631587 -1.1325696 -0.2706515
C 0.59435165 -0.027116371 -0.97326654
O -0.77897763 -0.5531736 0.88830465
C 0.1648162 1.0276437 0.99115866
O -0.9355354 1.606631 0.6555056
H 0.43523622 -1.9544394 0.04522604
H -0.045079153 0.6311426 -1.5708308
H -1.3817613 0.45528558 0.63429356
H 0.59604317 1.1717215 1.9868503
H -0.9994451 -1.5295081 -0.9295931
H 1.4214284 -0.40584877 -1.5721985
