10

O -0.1766818 -0.29681757 2.171053
C -1.264949 0.5571074 0.14515978
C 0.7325027 0.10745463 -0.11658218
N -0.6728704 -0.18907942 -1.9769156
N 0.4131356 -0.34015325 -1.4122144
C -0.33386898 0.05710295 0.878938
H -2.1477878 1.1164876 -0.08822976
H 0.65646106 -0.7829437 2.2306504
H 1.6440037 0.68691957 0.012395336
H 1.1500549 -0.91607803 -1.8442545
