11

C -1.1347212 1.1452559 0.6022242
C -0.22030962 0.030018723 0.20752925
C 0.7635359 -0.014802299 -0.7455262
N 1.2480781 -1.2773925 -0.6543297
N 0.6135147 -1.9754028 0.28857535
N -0.27169314 -1.196624 0.8121404
H -2.1804996 0.85972404 0.45666257
H -0.9371728 2.0405257 0.006180751
H -1.0052108 1.3998934 1.6585917
H 1.1427034 0.7100927 -1.4487278
H 1.9817747 -1.721289 -1.1833204
