11

C -0.4552523 -1.1607264 0.9340604
C -0.15021357 -0.5959061 -0.17986503
C -0.20497318 -0.30259743 -1.6150122
N 0.848834 -0.45348594 0.88996804
N 0.3697027 1.7185397 1.0074197
N 0.78262484 0.7619658 1.6594375
H -0.26126793 0.77888787 -1.7647947
H -0.96311694 -1.8264658 1.6043854
H -1.0831325 -0.77678245 -2.060557
H 0.4201581 2.532961 1.6367279
H 0.696637 -0.67639023 -2.1117704
