11

N 0.966353 0.46592528 -2.1417964
C 0.5788693 0.24313512 -0.95924515
C -0.7989902 -0.12025538 -0.6452147
C -1.1510108 -0.3418479 0.6241983
C -0.12500978 -0.20953865 1.6415987
N 1.096667 0.10422217 1.4220202
O 1.4646147 0.33669218 0.10317962
H 1.9575013 0.70356554 -2.162798
H -1.4769762 -0.19137208 -1.4858123
H -2.1604884 -0.61347085 0.9142061
H -0.35153037 -0.37705547 2.6896632
