11

N -2.1347356 -0.11884286 1.0764244
C -1.0369436 0.07263329 0.48308375
C -0.038770273 -0.98051935 0.3243489
C 1.1038753 -0.7203913 -0.31454143
C 1.2962694 0.62482965 -0.8257239
N 0.4545508 1.5843028 -0.713017
O -0.73214865 1.3190031 -0.053927645
H 1.8772796 -1.4673434 -0.45987377
H -0.2946965 -1.9431835 0.7492079
H -2.699136 0.73011625 1.0859118
H 2.2044551 0.89939517 -1.351893
