11

N 1.52846088 0.45748555 -0.82434178
C 0.49198385 0.28729953 -1.55819045
C -0.82502538 -0.08274315 -1.07188037
C 0.17502119 -0.08034639 1.12995991
C -0.97001437 -0.26114597 0.24289604
N 0.09375183 -0.23428925 2.38038400
O 1.38268608 0.27620365 0.53908217
H 0.67459435 0.44433287 -2.61603512
H -1.64364486 -0.20392570 -1.77358550
H 0.99293427 -0.06429184 2.82976270
H -1.90074829 -0.53857935 0.72194796
