11

C -0.040299535 -0.9113421 0.06754236
C -1.1916144 -1.793797 0.09058398
N -0.6356995 -1.7475307 1.2047929
C -0.24993524 0.572603 0.16350625
C 0.9146102 1.438383 -0.25974503
O -1.3050153 1.0222398 0.5526429
H 1.210807 1.2067723 -1.2880011
H 0.9142443 -1.2589395 -0.324533
H 1.7805405 1.2404389 0.38135535
H 0.63703173 2.4899497 -0.18473682
H -2.0346699 -2.258778 -0.40340775
