11

C -0.84651375 -0.20899591 -1.4486945
C -0.054092173 0.14465412 -0.23665209
N 0.38174993 0.54944927 2.1624882
C -0.2286154 -0.33082756 1.0345526
C 1.3089262 0.50015694 1.3639518
O 0.9385431 0.9814042 -0.3202957
H -0.7440614 -1.2049737 1.3989427
H 2.3874865 0.40279207 1.3276498
H -1.3831503 0.68605345 -1.7795622
H -1.5730507 -0.9988089 -1.2387701
H -0.18722203 -0.520904 -2.2636104
