10

N 2.5486898 0.06294519 -0.25683287
C -0.7460062 0.5203808 -0.3866747
O -0.43932092 -1.7188556 0.5560513
C 1.5069735 -0.39246374 0.170637
C 0.079443455 -0.59052575 0.03121795
N -0.22560805 1.6726364 -0.5936138
H -0.9204426 2.301908 -0.9948783
H -1.801672 0.26806632 -0.5619644
H -1.3777546 -1.6116923 0.7436676
H 1.3756973 -0.51239926 1.2923901
