10

N 0.088671416 -0.63784826 1.3069773
C -0.6309525 -0.6830248 0.14598021
O -0.4006781 0.67080975 -1.9222845
C -0.0775901 0.28528357 -0.6584018
C 0.96589464 0.8557154 0.10640096
N 1.0515684 0.28173503 1.2978135
H -0.036530044 -1.2047964 2.127036
H 1.641208 1.6513314 -0.1743661
H -1.4460214 -1.3753833 -0.002079488
H -1.1555703 0.15617733 -2.2270758
