10

N -1.2274696 -0.7085189 -0.29372293
C -0.6288284 -0.0070969714 0.697227
O -1.1220849 0.2031152 1.7851918
C 0.7655128 0.5562641 0.3807375
C 1.3071569 0.19296154 -0.92673016
N 1.6890856 -0.12177735 -1.9707495
H -2.1419282 -1.095828 -0.11576902
H -0.79176134 -0.87971294 -1.1857871
H 0.7058113 1.645736 0.46192247
H 1.4445057 0.21485743 1.1676799
