11

O -0.556967 0.9433066 1.4153848
N 0.61975414 -0.8731451 -1.1184683
C 0.5625623 0.046613712 1.2878553
C 0.18244219 -0.19467854 -0.14434284
O 0.0040771896 -0.86573404 -2.370532
C -0.9710649 0.7439147 0.043992303
H -1.9665637 0.29193705 -0.03415285
H 0.48174027 -0.81750685 1.9558823
H 1.5219364 0.55018574 1.4440967
H -0.9306608 1.665192 -0.5493952
H 1.052744 -1.4900854 -1.9303201
