10

O -0.12293636 1.6959811 -1.1180831
C 0.45024124 -1.2470424 0.67521846
C 0.9527247 -0.013201068 0.31906223
C -0.14238903 0.60976136 -0.3151361
N -1.2354769 -0.31965524 -0.33990645
N -0.8441227 -1.4019948 0.31443754
H 1.938037 0.4018118 0.4637677
H -0.8673861 1.6237262 -1.7319466
H -1.0798725 0.6941207 0.521523
H 0.95118064 -2.0435078 1.2110635
