10

O 0.31211364 -1.0357711 -1.6653286
C 0.40705374 -0.66485554 -0.330117
C 0.4243561 0.7915705 0.018411048
C -0.46357295 0.9393267 0.99736226
N -1.1147538 -0.3133896 1.278616
N -0.688797 -1.2061715 0.51666325
H -0.5210632 -0.69954276 -2.020285
H -0.7561738 1.809534 1.569537
H 1.0850437 1.524975 -0.42265305
H 1.3157935 -1.1456758 0.057794053
