9

N -0.7745073 0.24494103 -0.87448055
C 0.57268715 0.31086522 -0.76142824
C 0.87059 -0.111455545 0.51488596
C -0.38563234 -0.40915868 1.0858938
N -1.3797755 -0.19061553 0.23709886
H -1.3413128 0.47789893 -1.6740108
H 1.1962721 0.6446541 -1.577719
H 1.8466649 -0.19291379 0.9690147
H -0.60498613 -0.77421576 2.0807455
