11

O -0.17196367 0.30772905 2.77457036
C -0.12609629 -0.05597586 -2.08073254
N -0.47894169 0.40075350 0.50428977
C 0.55646393 -0.39335726 0.15182634
C 0.77767012 -0.66177501 -1.18585363
C -0.78850543 0.71143281 1.82109221
H 0.13314147 -0.32487356 -3.11729576
H -0.99919363 0.72854892 -0.31979630
H 1.61860192 -1.31390325 -1.42676469
H 1.14881545 -0.77014074 0.98157598
H -1.66999234 1.37156124 1.89708769
