10

O -0.44590796 0.56848723 -1.29050861
C 0.36681359 0.35277586 -0.11631460
C -1.48614520 1.34895852 -1.25500383
C -0.17688475 -0.46860830 0.97710551
O -0.95871997 -0.56427964 1.87742486
C 0.83273425 -1.09822785 0.10977122
H 0.46337781 -1.82783198 -0.61087839
H -1.51327314 1.78300669 -0.21758099
H 1.06781725 1.16029241 0.06692738
H 1.85018811 -1.25457287 0.45905729
