10

O 0.33536005 -0.5126592 -2.2364717
C 0.14849468 -0.3256713 -1.0704094
C -0.90877545 0.48121163 -0.26466125
C 0.010860494 0.2717982 0.94067264
O 0.077330686 -1.1268561 1.1395026
C 0.97440815 -0.55221784 0.18854101
H -1.9088613 0.056983195 -0.1708335
H -0.9681197 1.5116739 -0.6330391
H 0.20411539 0.92365146 1.7828032
H 2.035187 -0.72791386 0.32389534
