10

O -1.3105246 -0.15709728 1.7378508
C -0.3804314 -0.2697216 0.994052
C -1.1311635 1.1662492 -1.7215351
C 0.4093602 0.30607074 -0.10619332
O -0.16877526 0.34112468 -1.4291861
C 0.7073442 -1.0995175 0.44980657
H 1.1330781 1.0970473 0.06010523
H 1.6331038 -1.2396445 1.002066
H -1.2999713 1.7859606 -0.79804087
H 0.40797973 -1.9304717 -0.18892518
