10

C -1.1420854 0.3848584 0.16044924
C 0.65557706 -1.100448 -0.3220907
N 1.5819265 -0.16659047 0.21945149
N 1.1606424 1.019627 0.28244483
C -0.16472271 1.3468426 0.06733862
C -0.7321336 -0.8597276 -0.3895744
H 0.03628995 -1.7411714 0.50285757
H -0.34337416 2.4120836 -0.04066964
H -2.172626 0.60037595 0.42328197
H 1.1205062 -1.8958501 -0.90348905
