10

C -0.22428626 0.97501963 -0.368935
C -0.6291149 -0.039199386 -1.2361255
N -0.45426446 -1.3345273 -0.9880169
N 0.13111988 -1.7111747 0.13817762
C 0.5411737 -0.7890429 1.004971
C 0.38957074 0.5820428 0.803121
H -0.38936892 2.018009 -0.61728543
H -1.1186032 0.18416245 -2.1807153
H 1.012732 -1.1808287 1.902798
H 0.7410417 1.295539 1.5420107
