14

C -0.11107335 -0.2618004 -0.04142087
N 0.16897884 -1.5284668 0.050732516
C 1.5658169 -1.0340723 1.5187013
O 0.5617564 0.4977522 0.7178551
N -1.0802237 0.27069905 -0.8618464
C -1.156885 1.7024195 -1.0627319
H -0.40603498 2.0726216 -1.7735012
H 1.6196058 -0.30116588 2.3173375
H 1.3195419 -2.0238028 1.8857939
H -0.38327935 -2.2298179 -0.43349114
H -0.98955077 2.1954536 -0.102591194
H -1.367557 -0.31404552 -1.6300108
H 2.4109156 -1.0161468 0.8437374
H -2.152011 1.9703728 -1.4285638
