14

C 1.2809043 0.8614909 1.375296
N -0.2684364 -0.67002213 -1.6048787
C -0.18428709 -0.3375434 -0.12730144
O -0.91584724 0.90895027 -0.30005947
N 0.9353553 -0.3882095 0.6927484
C -1.542038 -0.15091427 -1.0623853
N -1.4717941 -1.0440485 0.11641082
H -2.430848 0.07137182 -1.6471828
H 0.40232152 1.214516 1.9221781
H 0.18126965 0.06056485 -2.165697
H 2.0781329 0.6488076 2.0867856
H 1.6017758 1.6599488 0.6946171
H 1.7108092 -0.8213964 0.20699045
H -1.3773184 -2.013516 -0.1875213
