11

N 1.0986917 0.26490098 -2.4261222
C -0.8594233 -0.40805656 1.6163805
C -0.0311097 -0.29031372 -0.33222407
N -0.7602647 -1.070853 0.40695947
C 0.3809528 -0.50856817 -1.7213247
C -0.17323032 0.7571757 1.5387299
O 0.3667552 0.8475348 0.29288208
H -1.413607 -0.8180664 2.4481864
H 1.3624462 1.0895294 -1.8852304
H 0.024271615 1.5770255 2.2113225
H 0.004517568 -1.4403083 -2.1495597
