11

N 0.1387455 -1.0633441 -1.9214098
C -0.28847456 0.8495744 -1.0283227
N -0.22292246 0.2306966 -2.1757715
N 0.023490371 0.003928156 -0.007947906
C 0.011176551 0.28473175 1.4161819
C 0.27796882 -1.1830463 -0.6294774
H 0.7601043 -0.33586103 1.9123251
H -0.5473182 1.8887861 -0.8835783
H -0.972946 0.07588699 1.842759
H 0.5575949 -2.0857704 -0.10529075
H 0.26258075 1.3344175 1.580532
