11

N 1.4718574 0.3697438 1.3565419
C 0.440102 0.20195653 0.43758488
N -0.27514634 1.2333051 0.020244837
N -1.2123948 0.6847713 -0.77897364
C -1.0985761 -0.6527334 -0.88985616
C -0.028610758 -1.0209296 -0.10764546
H 2.2841644 -0.1974825 1.1564698
H 1.7306693 1.3444654 1.4475715
H -1.892883 1.2874376 -1.212167
H -1.7753958 -1.2356166 -1.4979755
H 0.35621336 -2.0149176 0.06820508
