11

N -1.7317823 -0.49448183 0.19206981
C 0.7847267 0.89434296 -0.4332617
N -0.77143747 -1.2915224 -0.5301241
N 0.35859922 0.06901318 0.68989134
C -1.0357376 0.30745834 0.8956318
C 0.3703329 -1.1873734 0.1906228
H 1.6884435 0.5430642 -0.9226771
H 1.2796332 -1.6616223 -0.1445287
H -1.4066029 1.117581 1.506337
H -0.35475403 -0.26063415 -1.2401414
H 0.8185786 1.9641743 -0.20381978
