10

O -0.565932 -1.8777864 -0.7866363
C 0.21245402 -0.9898453 -0.046049524
C -0.31699696 0.41852507 -0.14448401
O -1.2938485 0.6889286 -0.8100657
C 0.40305594 1.5256315 0.60912484
O 1.3753605 1.3160949 1.2854319
H -1.2638052 -1.3557597 -1.2064722
H 0.24210604 -1.2699257 1.0180506
H 1.2577924 -0.98418957 -0.3921518
H -0.05018624 2.5283267 0.47325233
