10

O -0.2856018 -1.6883855 1.258677
C 0.83762276 0.88684213 -0.69206095
C -0.11549472 -1.2220256 0.15804261
O -0.8373661 0.8891519 1.0437534
C -0.42051938 0.2421444 -0.1134748
O 1.3364596 0.5190416 -1.7244484
H 1.257799 1.7036718 -0.07148577
H -1.1891214 0.26511577 -0.90449476
H -0.85787416 0.21055433 1.7394782
H 0.27409598 -1.8061107 -0.69398654
