9

C 0.7105777 -0.4923432 -1.0578239
C -0.87221915 0.4163936 1.2529032
C -0.30343878 0.43148604 -0.11819119
C -0.72027636 -0.10987705 -1.2854615
O -2.001497 0.74354726 1.50974
H 0.9120851 0.41518852 0.049186856
H 1.5168585 0.05182199 -1.551768
H -0.15893905 0.08088879 2.035806
H 0.9168491 -1.5371062 -0.8343911
