12

N -2.1305165 0.56047964 -0.077462
C -0.7859302 0.19477466 -0.03924164
N 0.15243877 0.81585664 0.63890564
C 1.310183 0.15946427 0.30535898
O 2.4935117 0.5438481 0.8304536
C 1.0861143 -0.86793476 -0.55645293
N -0.29907873 -0.8337271 -0.7670151
H -2.294602 1.3145497 0.57786125
H -2.758574 -0.20873971 0.12110894
H 2.3032403 1.2841215 1.4218152
H 1.7331073 -1.6087682 -0.99467623
H -0.80989426 -1.3539244 -1.4606557
