12

N 0.77835625 0.50730956 0.2506975
C -0.11215549 -1.543851 0.5963635
N -0.9971498 -0.8758583 -0.22037746
C -0.38967445 0.27543932 -0.34584457
O 2.039959 -0.9534745 1.6264346
C 0.94965345 -0.68863505 0.86361516
N -1.0246315 1.3239279 -1.1780714
H 2.5906749 -0.15987292 1.6034051
H -0.27640828 -2.559902 0.9298044
H -1.2449492 2.1583884 -0.631797
H -1.8870445 0.91051805 -1.5378762
H -0.4266303 1.6060102 -1.9563535
