11

N 1.9034169 0.9243662 1.2600373
C 0.7441022 0.67166793 1.072349
O 0.8693594 -0.8989912 0.14363007
C -0.04909142 -0.5343663 -0.8454399
C -1.1805161 0.113499515 -0.036184035
O -0.519522 0.9327008 0.97805154
H -1.7644304 -0.6322823 0.5021011
H 0.37740052 0.19068082 -1.5591278
H -1.8257099 0.7815804 -0.6088123
H -0.42474782 -1.4033165 -1.3969755
H 1.8697394 -0.1455393 0.49037063
