10

O 0.21303919 2.2104456 0.3913453
C 0.119008176 0.88237566 0.1631002
C -1.0033152 0.19324735 -0.2117055
N -0.5704122 -1.1170442 -0.31071773
C 0.744543 -1.1398556 0.00048313112
N 1.1947836 0.059058547 0.29317808
H 1.1297221 2.377564 0.64800966
H -2.0196922 0.49054983 -0.40859193
H -1.1376816 -1.9081386 -0.56657
H 1.3300052 -2.0482028 0.0014688541
