10

O -1.9423841 0.078519665 -0.69761145
C 1.8731638 0.04477089 1.0978258
C -0.69034654 0.2140632 -0.1872952
N 1.3461301 -0.73259294 0.302695
C 0.22143008 -0.92923397 -0.29552078
N -0.29642713 1.2821183 0.38251576
H 2.6167636 0.76698303 0.76392
H -1.0503049 1.9660428 0.4349243
H -2.0695894 -0.8262787 -1.0122653
H -0.008435383 -1.8643922 -0.78918827
