11

C -1.74101133 -0.51404424 0.09593990
C -0.08889602 -0.04834650 -1.72922431
C -0.53746301 -0.19552553 -0.29535369
C 0.53449690 -0.11117398 0.77514036
O 1.67856094 -0.43022400 0.53256449
N 0.10644838 0.33678476 1.98080087
H -0.87575011 -0.33910122 -2.42634393
H 0.20682594 0.98682976 -1.93277084
H 0.78832201 -0.68603378 -1.87378467
H -0.83879377 0.64418667 2.12834272
H 0.76725991 0.35664815 2.74468837
