11

C -0.43569985 1.498093 -0.93297875
C 0.90377504 -0.5755954 -1.3610059
C 0.011625933 0.33330035 -0.5505508
C -0.5299519 -0.21691276 0.7556382
O -0.69641966 -1.4084393 0.90420294
N -0.7995135 0.7151737 1.7022433
H 0.42410767 -1.5575538 -1.4132663
H -0.5964622 1.6892297 1.5617715
H 1.0612085 -0.18742181 -2.3680756
H -1.2169417 0.4079584 2.5694013
H 1.8742719 -0.69783217 -0.86737996
