11

C -0.73250943 -0.17244059 -2.3133714
C -0.16578278 -0.12014356 -0.96812433
C 0.32067212 -0.08431173 0.13459739
C 0.98207146 -0.098342866 1.4394053
O 2.088932 -0.5661417 1.608497
N 0.24653897 0.47234815 2.4383996
H 0.004929465 0.15378949 -3.052372
H -1.6115841 0.4733265 -2.3997202
H -1.0310446 -1.1948503 -2.5616374
H 0.61238205 0.4017224 3.3751755
H -0.71460533 0.7350443 2.2991498
