13

N -1.8660665 -0.56253886 -0.09486995
C 0.6844722 -0.35739738 0.14501612
C -0.74006224 0.3406819 -0.074351825
N 1.5054138 0.38635778 1.0545691
C -0.011486169 0.4580404 -1.2888513
N 0.5461338 0.5443511 -2.3723772
H -2.136578 -0.7827572 0.8585182
H 1.3189347 0.16206814 2.027303
H 0.51053166 -1.4292952 0.2805846
H 1.1560216 -0.12639795 -1.3910818
H 2.4918282 0.22778085 0.883344
H -2.65808 -0.11947251 -0.5464089
H -0.80106276 1.2585789 0.51860595
