11

O 0.72595459 0.02300866 0.93524044
C 0.60653515 -0.62339869 -0.25595204
C -0.37389091 0.92718762 1.05166713
O -1.36528785 0.48183159 0.17458880
C -0.68237499 -0.14948588 -0.89047066
N 1.40542612 -1.45730121 -0.75217065
H -0.46348123 0.55187305 -1.70827933
H 2.21016058 -1.60361540 -0.14855645
H -0.75471697 0.89291666 2.07324745
H -0.02741370 1.93696663 0.78846457
H -1.28091093 -0.97998309 -1.26777962
