11

O 0.6902964 -0.44479778 0.85314715
C -0.61390173 0.33235416 -0.89083385
C -0.6149612 -0.088215925 1.3113031
O -1.4453112 -0.04378065 0.1892422
C 0.75426275 -0.16231613 -0.47619683
N 1.751526 -0.28151584 -1.2319154
H -0.96204275 -0.14949982 -1.8056822
H -0.97384095 -0.85882616 1.9948194
H -0.5934396 1.4226604 -1.0302736
H 2.5644877 -0.6168758 -0.72203064
H -0.5570754 0.89081365 1.8084208
