10

C 1.0302718 0.57039046 0.49633336
N -0.04126803 -0.12917593 0.09646191
N 1.5738981 -0.045676406 1.5199542
C -0.97139573 0.07870088 -0.9970598
N -0.15260747 -1.2046859 0.89140964
N 0.81345814 -1.138375 1.7334298
H -0.59540176 -0.39395547 -1.9071126
H -1.921735 -0.37464473 -0.7158173
H 1.3722105 1.489873 0.04523892
H -1.1074306 1.147549 -1.1628381
