10

C -0.81966292 -0.17408428 -1.11435144
N -0.04197279 -0.11866075 0.10886821
N -0.16157048 -1.08035751 1.03725164
C 0.88668813 0.75062745 0.53244211
N 0.66112329 -0.78557824 1.97691008
N 1.33388942 0.34942601 1.69945366
H -1.75176819 -0.69338500 -0.89238110
H 1.19877372 1.63329152 -0.00548274
H -0.27135753 -0.71957619 -1.88556566
H -1.03414289 0.83829675 -1.45714473
