10

O -0.077556 0.8189773 -2.0730112
C 0.44705206 -0.5279522 0.82569915
C -0.85681343 0.2383747 0.4422636
C -0.1188495 0.41532183 -0.86509
N 0.9741375 -0.21288837 -0.52673566
H 1.0931258 0.14782996 -1.8129209
H -1.0458411 1.1594827 0.9979179
H 1.0309551 -0.07469154 1.6320977
H 0.3173646 -1.5989941 1.0055537
H -1.763575 -0.3654601 0.37422547
