11

N 0.556947 -0.03231254 -0.67787105
C -0.53048277 0.98014104 1.2717254
O -0.9475359 -1.6420208 -1.2533116
C 0.34466603 -0.14492254 0.7495856
C -0.14212057 -0.79886895 -1.5693328
O -0.3392622 1.5453658 2.3146434
H 1.2046164 0.65413237 -1.0323715
H -1.3765428 1.2440284 0.60175925
H 0.11875869 -0.5554333 -2.6153278
H -0.17755556 -1.0954566 0.9098333
H 1.2885116 -0.15465298 1.3006678
