11

N -0.4097016 -0.5515059 -1.4650197
C 0.19592637 -1.2946758 -0.6414692
O 0.77038234 -0.81595445 0.47514862
C 0.6962223 0.59528303 0.63009745
C -0.73101753 1.079926 0.80172807
O -1.03151 2.2402518 0.70791626
H -0.7857582 -1.0982519 -2.2335982
H 0.3462712 -2.376729 -0.69216937
H 1.1553938 1.1177365 -0.21188226
H 1.2555168 0.8108992 1.546454
H -1.4617255 0.29302037 1.0827941
