11

N 0.039120667 0.28255877 1.0767039
C -0.7532647 -0.7186967 1.311047
O 2.0304172 0.15130663 -1.5569328
C -0.25498456 -0.07221396 -0.9610535
C 1.0502815 0.6559935 -1.062791
O -1.2458459 -1.3238119 0.33290565
H -0.997849 -1.0237563 2.335589
H -1.1410391 0.5441894 -1.0850561
H -0.24425268 -0.99340916 -1.5346903
H 1.0360634 1.6952263 -0.68183714
H 0.48135316 0.80261344 1.8261156
