10

N -0.39516118 2.9824994 -1.5551536
C -0.25464627 1.9097857 -1.153381
O -0.3523539 0.5073025 0.71970934
C -0.061529893 0.5331697 -0.6914645
C 0.023801679 -0.54774785 1.4354918
N 0.53224075 -1.5423907 0.68610245
H -0.73655975 -0.14591515 -1.2223347
H 0.8882878 -2.2693577 1.3141109
H -0.6094836 -1.6380725 1.3526468
H 0.9654045 0.21072616 -0.8857271
