10

N -1.3182608 -0.64109516 -1.1585174
C -1.2092191 -0.7458026 0.092545904
O -0.18018329 -0.2167415 0.7767315
C 0.7663677 0.47374484 -0.031746726
C 1.8226224 0.98114073 0.8500299
N 2.6773329 1.4002339 1.5066159
H -2.1600974 -1.1082858 -1.4872786
H -1.8815936 -1.2496557 0.79238796
H 0.2865019 1.3040218 -0.55937934
H 1.1965297 -0.19756027 -0.78138876
