15

N 0.5178007 1.9792175 0.96579623
C 0.69779146 0.78894585 0.34022197
O -0.35105446 -0.8477376 1.14675
N 0.17429377 0.6357083 -0.9088745
C -0.9293289 -1.3214468 -0.017466528
C -0.12898503 -0.75658077 -1.2269199
O 1.7183893 0.053941764 0.74191594
H -0.9282008 -2.4199572 -0.09037869
H -0.66475207 -0.7980394 -2.180217
H -0.59315 1.2626317 -1.108061
H -0.3596403 2.4568071 0.84041715
H 0.81926185 -1.2917464 -1.3379406
H -1.9833388 -0.9943727 -0.11037111
H 0.89412767 1.9979805 1.9025193
H 1.1167853 -0.745352 1.0426085
