15

N -0.73691742 -0.74981264 1.63451016
C -0.79227914 0.07238725 0.44726974
O -2.06533464 0.61434735 0.42925326
N -0.49212482 -0.70352613 -0.74710442
C 1.32007219 0.67817081 -0.21591831
C 0.72421429 -0.15461333 -1.35241087
O 0.16378288 1.13085757 0.46485281
H 0.21161029 -0.77299454 1.99661751
H -0.41368954 -1.68631418 -0.50866674
H 1.39695316 -0.94508295 -1.70107134
H 1.89683493 1.54700753 -0.54033293
H 1.94620941 0.05692784 0.44646697
H -2.28533187 0.77940091 -0.49521780
H 0.46858165 0.48598001 -2.20348878
H -1.34258133 -0.35273567 2.34524089
