10

C -0.83636099 -0.27355362 -1.08095164
N 0.09218831 0.13443317 -0.04418447
N 1.01897617 1.07345755 -0.28714698
C 0.26973608 -0.30508863 1.21096433
N 1.27474413 0.34489340 1.74498750
N 1.70887481 1.19095447 0.78587228
H -0.40584092 -1.07990472 -1.67739684
H -0.32746178 -1.06849709 1.68744754
H -1.02723822 0.59023305 -1.71784524
H -1.76761784 -0.60692757 -0.62174647
