10

C 1.0531098 0.84849626 -0.3844653
N -1.728932 -0.5168179 0.8043966
N 0.3751295 -0.18524623 1.0409714
C -1.0998877 -1.0074122 -0.25747877
N -0.8034344 0.036833066 1.5723615
N 0.22656001 -0.8581822 -0.14625522
H 0.72360086 1.7478191 0.12613702
H -1.5888538 -1.4958956 -1.0883404
H 0.74408317 0.82328224 -1.4270732
H 2.0986245 0.60712343 -0.24025346
