11

N 1.6169405 -1.6017988 0.64269173
C 0.75983435 -0.7366547 0.30473307
C 0.8538436 0.6695009 0.7363993
N 0.019951236 1.5905867 0.4302032
C -1.054457 1.2064917 -0.3765912
C -1.2010413 -0.04924116 -0.8040808
O -0.3255316 -1.0376312 -0.4885124
H 1.3923161 -2.5186338 0.25987455
H 1.7094904 0.9101022 1.3648129
H -1.7633452 1.9788148 -0.6396937
H -2.008001 -0.4115365 -1.4298366
