11

N 0.52412289 -0.36116324 0.25517182
C 1.01565319 -1.59430170 0.25558179
C 0.56145489 0.90328264 0.60803876
N -1.13096170 -1.70467618 -1.19096983
C -0.49955542 1.75766167 0.12914745
C -0.15466759 -1.44846155 -0.47119019
O -1.42387894 1.38845057 -0.57781235
H 1.85429168 -2.13481597 0.64927892
H 1.37531078 1.24874480 1.23620707
H -0.42057613 2.81405544 0.45105146
H -1.70119358 -0.86877635 -1.34450483
