11

N -1.7331706 -0.68797064 1.4581566
C -0.530267 -0.8115606 1.1849766
C -0.1463324 1.1890576 -1.3857626
N 0.5219737 -0.3635498 0.25618613
C 0.786864 -1.2395897 1.2177577
C 0.8758845 0.37656748 -0.7693409
O -1.3108845 1.2352175 -1.0222098
H -2.185576 -0.024029942 0.82413924
H 1.6133827 -1.8134288 1.5892993
H 1.9065644 0.34826544 -1.1057913
H 0.20156102 1.7910217 -2.2474105
