11

N -1.3851657 -0.5417607 0.55757487
C -0.7449668 0.43210793 -0.15920183
O 0.39620748 0.8562749 0.51566243
N -1.0348227 0.99194807 -1.2530812
C 1.5596551 0.2066603 0.25915653
N 1.6400887 -0.8282188 -0.45424154
H -1.1204468 -0.65833807 1.522904
H 2.3657346 0.7280083 0.7868936
H -1.9192623 0.64547974 -1.6121749
H -2.3595958 -0.693528 0.3464191
H 2.602574 -1.1386336 -0.50991124
