11

N -0.68922827 0.21523083 1.41482102
C -0.14934744 0.80704936 0.30562172
O 1.05663704 0.19707814 -0.02780693
N -0.05190671 -1.39223511 -1.28107760
C 1.01597624 -0.85954672 -0.87827467
N -0.53865705 1.78311140 -0.39420000
H -0.08811715 -0.37865931 1.96389900
H -1.36753931 0.75397632 1.93132999
H -1.39083456 2.18282556 -0.01309099
H 0.15695224 -2.15986262 -1.90794310
H 2.04606508 -1.14896798 -1.11327814
