10

N 0.8870711 -0.3844809 -0.6433011
C -0.21956669 -1.097619 -0.8442787
O -1.2888305 -0.8330381 -0.25703514
C 0.6649042 0.68590385 0.35498416
C -0.6787711 0.7526374 0.8378481
N 1.2977738 1.5704616 0.91129667
H -1.3478506 1.4936666 0.41522184
H -0.18797523 -1.9331505 -1.5539309
H 1.7773464 -0.6169385 -1.0440884
H -0.90410125 0.36255774 1.8232837
