10

C -1.065684 -0.45784095 0.78992355
N 0.82527876 1.5497457 0.21101618
N 1.0644952 1.2811466 -1.0609508
C 0.9077203 -0.0338454 -1.2085668
N 0.60784346 0.42461926 0.8519727
N 0.64233273 -0.6227566 -0.037010245
H -1.4859608 -1.0336128 -0.0316064
H -0.9397205 -1.0349975 1.6977247
H -1.5689178 0.4938667 0.9309088
H 1.0126127 -0.5663253 -2.1434119
