12

N 2.1681833 0.39558262 -0.693434
C 0.8867565 0.16482468 -0.28195164
N 0.70585734 -0.8417776 0.5872205
C -0.5412742 -1.025332 1.0081279
C -1.6079731 -0.23809418 0.5879983
C -1.2929066 0.7648485 -0.32265085
N -0.06336273 0.9837103 -0.77080333
H 2.2877169 0.9614112 -1.5176946
H 2.833417 -0.3454685 -0.53412676
H -0.6911858 -1.8412595 1.7110777
H -2.6180286 -0.40171957 0.9399704
H -2.0671992 1.4232739 -0.7137335
