12

N -1.93957060 1.46355932 -0.51274991
C 1.37028005 0.04168727 -0.45240868
N -0.60909861 -0.53795741 0.66834031
C 0.36123781 -1.33932145 0.99499610
C 1.61860373 -1.03411879 0.33764869
C -0.03374801 0.35165989 -0.24765304
N -0.67838066 1.30845081 -0.84563680
H 2.03195803 0.58501958 -1.11330360
H 2.54943000 -1.57156530 0.46721240
H 0.20066234 -2.14851000 1.70062609
H -2.39399151 0.78778704 0.08608654
H -2.47738177 2.09330889 -1.08315796
