10

O 1.4486887 -1.2704521 0.8716705
C 0.5467018 -0.45721233 0.32167938
C 0.88258415 0.8926239 0.08459927
N 0.0071285744 1.7142999 -0.4532315
N -1.2086821 1.2616407 -0.7780514
C -1.465641 -0.013028903 -0.5348152
N -0.6392703 -0.9195888 0.009811127
H 1.0294397 -2.1423037 0.95163167
H 1.8587836 1.2931558 0.33379504
H -2.4597332 -0.35913447 -0.80708903
