10

O 0.3880194 -1.437697 1.0892763
C -0.7639051 0.057241958 -1.2137694
C 0.40330493 -0.40818354 0.27940923
N -0.28249636 1.6539432 0.46999884
N 0.35639784 -0.62468797 -1.0993499
C 0.7099266 0.93881893 0.8150449
N -1.2231057 0.7688193 -0.12668224
H 0.18960433 -2.2351077 0.5693182
H -1.3747057 0.0037369032 -2.1147473
H 1.5969598 1.2831161 1.3315015
