9

N 0.7296698 -1.2066513 -1.0638576
C -1.0077103 0.92031944 0.96948075
N -0.56162685 -0.07052695 0.12565349
C 0.6933008 -0.1393574 -0.32959437
O -2.1308117 1.0119257 1.4016889
H 1.538642 -1.5338855 -1.5685151
H -0.21294902 1.6555126 1.2283585
H 1.494488 0.56486064 -0.111626476
H -0.5430027 -1.202197 -0.65158814
