9

N -0.8057934 1.8447216 -0.12668224
C -0.10999435 0.8115386 -0.34888262
N -0.23803008 -0.30994684 0.4560017
C 0.47999543 -1.4728528 0.29918414
O 0.36092186 -2.4421718 1.0058634
H -0.5952561 2.5723891 -0.8011184
H 0.6287905 0.68264 -1.1478393
H -0.9055344 -0.2615139 1.2154179
H 1.1849003 -1.4248041 -0.55194426
