9

N 0.51864011 -0.61671170 -0.27878852
C 1.16047393 -0.02380526 -1.35925131
N -1.03900269 -0.26767248 1.37644331
C -0.34369718 0.14657235 0.30859236
O 1.99851616 -0.57459787 -2.03124310
H -0.56718583 1.17029686 -0.01526173
H 0.84578566 1.02464097 -1.58289964
H -1.69683740 0.33445049 1.84266495
H -0.87669301 -1.19317350 1.73974399
