9

O 0.8153469 -1.6743697 -0.7652132
C 0.267877 -0.5628555 -0.24892788
N -0.31075716 -0.5137265 0.9396516
N -0.69057065 0.75770867 1.0232545
N -0.40696272 1.5260735 -0.0046350122
C 0.21342781 0.70688194 -0.8490228
H 0.696126 -2.3886235 -0.125359
H -1.1665713 1.1101211 1.8375844
H 0.582084 1.0387901 -1.8073323
