9

O 1.9133828 -0.26177472 0.485711
C -0.2006701 0.94739664 0.30300066
N -1.4402523 0.56303495 -0.024730805
N -1.3394451 -0.8022636 -0.40670434
N -0.08652774 -1.1917826 -0.31300336
C 0.61604273 -0.17170295 0.17666255
H 0.032517463 1.9519502 0.62013066
H -1.6870123 0.13598971 -1.1488136
H 2.1919646 -1.1708474 0.30774713
