11

N 0.041156482 0.14905408 1.6095679
C 1.0624969 0.49017113 -0.9743536
O -1.1538333 -0.26997173 -0.29478166
C -1.0591923 0.11054547 0.9886599
C 0.07597761 -0.65858924 -0.8974001
O 2.2341392 0.31987748 -1.1904427
H 0.6084049 1.4985172 -0.88833904
H -0.19355044 -0.96550524 -1.9128852
H 0.53687495 -1.4975756 -0.36864597
H -0.097316764 0.4620443 2.5659468
H -2.055157 0.3614322 1.3626735
