11

N 1.6174164 -0.068677254 -0.29310775
C 0.4775209 0.1780875 -0.99064475
O 0.37074932 0.14274433 -2.1997821
C -0.7167428 0.46705452 -0.114355244
C -1.1594256 -0.51893836 0.8750038
O -0.46825567 0.6572529 1.2737594
H 1.6579298 0.18566471 0.6815979
H 2.474476 -0.17752351 -0.8141123
H -1.446862 1.1382022 -0.56254333
H -2.2108443 -0.5592542 1.1553229
H -0.5959621 -1.444613 0.9888613
