11

N 1.0993251 -0.12783115 0.14484847
C -0.15353233 -0.9989183 -0.049872518
O -0.254515 1.525904 -0.533445
C 0.88713473 1.1296774 -0.20089069
C -1.2180892 -0.004670258 0.064800434
O -0.64617497 -1.7626189 0.8947765
H 2.00639 -0.47249082 0.4195497
H -1.3448443 0.39830345 1.0615813
H 1.7215524 1.8418874 -0.18628217
H 0.004154444 -1.4554768 -1.0487516
H -2.1014006 -0.07376626 -0.56631446
