12

C 0.55830073 -0.6474392 -1.8490568
C -0.08101056 -0.73891956 -0.480723
O -0.6079725 -1.7427353 -0.053187773
N 0.008754526 0.4214113 0.26988286
C -0.47574592 0.53902113 1.564691
N -0.34859437 1.6430094 2.1781385
H 0.13765764 -1.4288083 -2.4834068
H 0.400236 0.33085623 -2.3140297
H 1.6382699 -0.81611454 -1.7592173
H 0.45117524 1.2457381 -0.116403766
H -0.9358086 -0.37799108 1.9329946
H -0.7452621 1.5719717 3.110318
