12

N 0.15082767 1.31524095 -0.12941803
C 0.36714082 -0.90884344 0.38613937
C 0.34476185 0.04371972 -0.82391196
O -0.68477602 -0.23125492 -1.74223748
C -0.40442577 1.20976511 1.10566112
N -0.40833583 -0.12500655 1.35451938
H -0.09973941 -1.86564692 0.13933809
H -1.53105251 -0.11442545 -1.28420355
H -0.51221281 -0.45145006 2.30189340
H 1.39434336 -1.07339154 0.73382743
H 1.27286651 0.02174256 -1.39636995
H 0.11060250 2.17955032 -0.64523761
