12

N -0.35336855 0.8638737 -0.9637159
C 0.2580522 -0.99219066 0.44770896
C -0.915038 -0.22417948 -0.25151554
O 1.2161787 -1.3015143 -0.4876236
C 0.8868463 0.13484386 1.361656
N 0.8868653 1.24088 0.9349182
H 1.1912235 -0.53724617 -1.0989573
H -1.2680774 -1.0377271 -0.9107784
H 0.85460275 2.0927978 0.42091858
H -1.708035 0.005616323 0.47958937
H -1.0173693 1.636232 -0.9361991
H -0.031880736 -1.8813863 1.0039988
