12

N -0.43567178 1.2556306 -0.05420963
C -0.8656043 0.8548395 1.1702807
C 0.27521724 0.23228635 -0.8184752
O -0.55231494 -0.41235796 -1.7557613
C 0.7319005 -0.679234 0.33593923
N -0.28665012 -0.36106557 1.3433357
H -0.21994215 -0.74996656 2.270255
H -0.85625684 2.0432394 -0.5205777
H 1.7359675 -0.4008591 0.6786709
H 1.109723 0.64476854 -1.3868307
H -1.3564088 -0.69799364 -1.2958989
H 0.72004086 -1.7292876 0.033271592
