12

N -0.7432515 -1.0217986 -1.0323831
C -0.23626895 -0.6330173 0.2773914
C 0.56855047 0.6655075 0.08506008
O -0.16778181 1.5779803 -0.6779219
C 0.8913692 1.2602832 1.3951629
N 1.1559014 1.6809071 2.4384108
H -0.042566083 -1.5342085 -1.5605202
H -1.556805 -1.6166887 -0.9522327
H -1.0927002 -0.41082448 0.92604935
H 0.38198173 -1.391119 0.77535754
H 1.5283664 0.42088756 -0.40222257
H -0.6867953 1.0020907 -1.2721514
