11

O 1.2293173 2.313239 -0.7855484
C 0.5362051 -0.71670413 1.164834
C -1.1726419 -0.9218572 -0.38323614
C 1.3770187 1.4895933 0.09806064
N -0.5168621 0.17859967 -0.67842746
C 0.5227631 0.32851166 0.24384995
N -0.5616279 -1.450318 0.69382334
H -2.0297947 -1.3148605 -0.90760505
H 2.176175 1.5695055 0.8546944
H -0.6934609 0.83115155 -1.4308305
H -0.86709166 -2.3068607 1.130385
