11

O 1.6539541 1.4752038 -1.5071858
C 0.012208706 0.08587273 -0.57403916
C -0.33825168 -0.29429448 1.5719737
C 0.73435175 0.6985462 -1.6770885
N -1.2881733 -0.9577898 0.8995803
C -1.0765741 -0.77174336 -0.5181096
N 0.40256163 0.4008966 0.71808875
H 0.3810496 0.4031344 -2.681168
H -1.3633114 -1.8817371 0.19320476
H -0.21565822 -0.26227865 2.645118
H 1.0978428 1.1041896 0.9296255
