11

N -0.4425621 0.7937143 -0.6531699
C 0.21005562 -0.46387064 -0.70561105
C -0.52062136 1.2786041 0.5969079
N 0.38341653 -1.0501949 -1.8400003
C 0.49301285 -0.6927609 0.68191314
N 0.069687754 0.47210377 1.469063
H -0.51224405 -0.49419194 1.6706586
H 0.8815843 -1.9261792 -1.6923068
H -0.74543124 1.2486595 -1.5009519
H -1.0365466 2.1928768 0.8544353
H 1.2196482 -1.3587608 1.1190618
