11

N -0.32248773 0.75549312 0.85692132
C 0.57476438 -0.10855690 1.46159832
C 0.46029163 -0.81064452 -0.60688151
N 1.06123946 -1.01753929 0.71238695
C -0.47459948 0.38747942 -0.47717748
N -1.24354521 1.00182161 -1.27070516
H -0.81738548 1.52241806 1.28074386
H 0.82172746 0.01760187 2.51219736
H -0.08323568 -1.71180747 -0.91515965
H 1.24019083 -0.62488934 -1.35354669
H -1.21696015 0.58862342 -2.20037721
