11

N -0.3589091 0.49723867 1.9623692
C -0.15800501 0.18350871 0.61383826
C 0.5234608 -0.8691726 0.05519283
N 0.34518123 -0.71508294 -1.3119615
C -0.41903275 0.3836778 -1.4962628
N -0.7376485 0.9554355 -0.35805988
H -0.7489133 1.4276576 2.042017
H 0.47371995 0.41779172 2.528398
H 1.0828104 -1.6921865 0.4714584
H 0.7134824 -1.3159566 -2.0289934
H -0.7161461 0.72708863 -2.477996
