11

N 2.0204675 -0.70319235 -2.2147799
C 0.9616 -0.40935656 0.16596588
C 1.5696896 -0.5742039 -1.1577603
C -1.4168125 1.3216571 0.87704575
C -0.52873963 -0.10314879 0.07997428
O -1.0575993 0.048675723 1.3677851
H 1.0878692 -1.331255 0.7451515
H -0.57212675 0.97450024 -0.37045562
H -2.3924084 1.1449884 0.34388265
H 1.4557111 0.40077114 0.70987993
H -1.1276511 -0.769436 -0.5466897
