10

O 1.7539858 -1.1262535 1.0130352
C 0.8038847 -0.6104839 0.50212616
C 0.50502574 -0.08609291 -0.93071353
C -0.72288156 0.5812685 -0.308424
O -1.5201039 -0.46748585 0.2004037
C -0.47062042 0.02718729 1.033602
H 0.29031757 -0.8208161 -1.7086778
H 1.2930316 0.5981448 -1.2593503
H -1.198564 1.5196606 -0.5637927
H -0.73407555 0.38487113 2.0217907
