10

O 0.39802512 1.10570315 1.06364487
C -0.02120047 0.07478397 0.18216812
C 0.94941354 -0.79122266 -0.55363805
C -0.15852262 1.61759698 -0.10750069
O -2.31248830 -0.73880898 0.94549941
C -1.28324046 -0.33994183 0.60417446
H 0.46566729 -1.29536368 -1.39482347
H 1.72658011 -0.12968571 -0.93974869
H -1.16192485 2.03540707 0.09174354
H 1.39769063 -1.53846824 0.10847993
