10

O -1.7912565 -1.1756771 0.008661069
C -0.6452728 -0.49475092 0.03986226
N -0.64398175 0.76537913 -0.61025715
C 0.53420657 1.3838267 -0.53805584
C 1.3120553 0.351063 0.25600362
N 0.4608212 -0.8026355 0.56748444
H -1.6470447 -2.0058348 0.48581463
H -1.4613367 1.1369716 -1.0730281
H 2.1924615 0.033722486 -0.31362227
H 1.6893481 0.80793554 1.1771374
