10

O 0.77291757 1.7937499 -0.8881791
C -1.0150037 -0.78013545 0.44422826
N -1.0011783 0.5555351 0.020334264
C 0.2173167 -1.4895893 0.24514522
C 0.2228263 0.6943477 -0.3771305
N 0.98540646 -0.427353 -0.22333696
H -0.27449876 -1.0821961 1.4365567
H -1.9538934 -1.252253 0.712079
H 1.9664122 -0.48017812 -0.44800156
H 0.07969491 2.4680724 -0.92169535
