11

N -1.6985683 0.20341612 0.0868561
C 0.09643035 0.6423677 1.0899857
C -0.72819424 -0.29068378 -0.730459
N -1.218786 0.76759195 1.1933084
C 0.47005925 -0.018434072 -0.10462879
N 1.7734774 -0.25976223 -0.57364994
H 1.8008294 -0.9915835 -1.2708702
H -2.6927795 0.18754387 -0.064527385
H 2.4136925 -0.4940681 0.17364483
H -0.95752966 -0.7774109 -1.6675497
H 0.7413689 1.031023 1.86789
