11

N -1.50848159 -0.83561256 0.59894262
C -0.30460898 -0.36430501 0.22294035
C 1.76906987 -0.08525570 -0.08792397
N 1.37088110 1.02477766 -0.58755837
C -0.07585357 0.97850890 -0.43213222
N 0.81707387 -0.98496974 0.42304623
H -2.34931630 -0.44469795 0.20806435
H -1.54914905 -1.79707576 0.90520960
H 2.81861917 -0.36405902 -0.04506457
H -0.41680305 1.80579652 0.19956438
H -0.57143161 1.06689252 -1.40508827
