11

C 0.56970486 -0.37944766 -0.35908609
C -1.89672146 -0.01790660 0.01782793
C 1.84550394 -0.19442393 -0.05903373
O -0.20950825 1.12604281 1.28965258
C -0.47670183 0.33203481 0.41350377
N 3.01282478 -0.12086453 0.26867558
H 0.31206121 -1.04039581 -1.17672870
H -2.08218657 -1.08266111 0.19572920
H 3.56904071 0.62527360 -0.14282084
H -2.59508626 0.58262119 0.60257774
H -2.04893097 0.16972697 -1.05029736
