11

C 0.29631868 -0.32194954 -0.63720536
C -1.7076961 0.19527099 0.8023927
C 1.5991241 -0.3792467 -0.86379653
O 0.53936964 0.72075367 1.4712799
C -0.20278028 0.25047818 0.6360959
N 2.7896483 -0.5380374 -1.0451249
H -2.1996486 0.7002338 -0.03561747
H -0.38599664 -0.6838108 -1.3956738
H -2.045107 -0.84679407 0.8040168
H -1.9872619 0.67673516 1.7406435
H 3.30403 0.2263668 -1.4770106
