10

O 1.2103385 -1.222885 -0.459212
C -1.9540128 0.32999736 -0.12568465
C -0.49336544 0.033517297 -0.112130955
N -0.12636575 -1.145434 -0.54319066
O -2.4191303 1.3716877 0.251331
C 0.6051443 0.9267173 0.25771976
C 1.6489325 -0.010162926 0.074798316
H 2.7166193 0.14931494 -0.04272848
H 1.3831574 0.06782923 1.2196088
H -2.5713177 -0.5005818 -0.52051115
