10

O -2.385785 0.95666283 0.40594065
C -1.7671655 -0.058570333 0.62581205
C -0.3579727 -0.22405893 0.2118876
N 0.27669817 -1.3408778 0.4631723
O 1.5357683 -1.1756405 -0.031178996
C 1.6375422 0.049629077 -0.57684314
C 0.4695505 0.7177386 -0.4613099
H -2.2103834 -0.92466867 1.1489464
H 2.601143 0.28908584 -1.0025057
H 0.20060457 1.7106998 -0.7839213
