9

O -1.29796198 -0.14461865 1.69505267
C 0.00944192 -0.44949752 1.26462801
C 0.24097028 -0.13918811 -0.15400573
C 0.38694767 0.15595934 -1.30795229
C 0.68379506 0.76821294 -3.72347574
N 0.54772066 0.47840905 -2.58426735
H 0.13831856 -1.52337784 1.43041501
H 0.76932477 0.06813832 1.86940374
H -1.47855679 0.78596241 1.51020186
