9

O -1.8678538 -0.17813562 1.0286949
C 2.6560588 2.0341365 -1.9312273
C 0.99456406 0.56071484 -0.7623859
C -0.8011445 -0.9447127 0.5168235
C 0.19651087 -0.14181265 -0.20598648
N 1.8749818 1.3361459 -1.3807492
H -0.2915572 -1.5147003 1.3083773
H -1.5090482 0.51847875 1.5932765
H -1.2525116 -1.6701149 -0.16682322
