9

O -0.937031 1.0640693 0.4785461
C -0.9587143 0.37788346 -0.7211989
N 0.04625251 -0.57359266 -0.615701
C 0.65377486 -0.43049216 0.62023103
C -0.02307007 0.55129445 1.3851703
O -1.7023747 0.59790534 -1.6283664
H 0.33725908 -1.1334043 -1.3986366
H 1.221073 0.6980142 0.8725695
H 1.3628306 -1.1516777 1.0073856
