9

O 1.44456320 0.38992694 -0.50800929
C -0.23786238 -1.00653662 -0.01737641
N -0.62263230 0.34971544 0.27385609
C 1.18128133 -0.89465211 -0.54053595
C 0.36923239 1.21569499 -0.01017129
O 0.47156344 2.39843074 0.07965193
H -0.86205304 -1.47408597 -0.78774267
H -0.24585636 -1.65450192 0.86697592
H -1.49823604 0.67600838 0.64335158
