9

O -0.44627398 0.13116498 2.4010043
C -0.30518472 -0.047677033 1.2324526
N 0.35776746 0.6202773 0.26875186
C 0.21122281 -0.019567877 -1.0124221
C -0.6657822 -1.2257437 -0.7364058
O -0.90793204 -1.1697717 0.5515186
H 1.1635664 -0.3643389 -1.431773
H 0.87053955 1.4570324 0.48457956
H -0.27792323 0.61862445 -1.7577064
