11

C -0.9102013 0.35100764 1.1576517
C 1.2885059 0.24243744 -1.2997106
N 0.13408491 0.6694464 -1.076292
C 0.6040015 -1.3818548 0.101902865
C -0.44095448 -0.31257603 -0.13788158
O 1.6238323 -0.9694379 -0.631821
H -1.6453006 1.1287003 0.9356873
H 2.0724165 0.6498812 -1.9251214
H -1.3597265 -0.39295742 1.819034
H -1.3010141 -0.7980424 -0.62188363
H -0.065644294 0.81339574 1.678434
