11

C -0.53302884 -1.0784228 -1.4129065
C -0.017203573 -0.25030193 -0.28575495
N 1.1584266 -0.26131457 0.24872942
C 1.0924238 0.69356483 1.254444
C -0.14133777 1.2355767 1.2673905
O -0.87002975 0.6378315 0.2803168
H -1.4244884 -1.63749 -1.109826
H 0.24171157 -1.7832161 -1.7148497
H -0.8040105 -0.4583452 -2.2729447
H 1.9384886 0.9120186 1.8908836
H -0.64095193 1.9900988 1.8545173
