11

C 0.64317179 0.13467906 0.18312570
C -0.16633670 -1.13308218 0.14057318
C -0.19052001 0.49661655 -1.01091580
O -0.97876368 -0.70319290 -0.88994594
C -0.33164939 1.30584806 0.21779993
N -0.21480543 -2.27035984 0.66128666
H 1.70405298 0.23117834 0.37387921
H 0.54564585 -2.40230404 1.32092083
H 0.15090340 2.27875017 0.20538090
H -1.24602676 1.23967469 0.80275370
H 0.08432805 0.82219201 -2.00485880
