11

C 0.42311636 -0.92758304 0.54024637
C -0.12551333 0.007154797 -1.135373
C 0.3919689 0.53112197 0.172085
O -0.1597705 -1.3451785 -0.6398676
C -1.0151764 0.8559652 -0.31529006
N 0.83435863 -1.6910923 1.4429233
H 0.20688488 0.16405413 -2.1524067
H -1.8796135 0.41307235 0.1738216
H 1.3246225 -1.1718872 2.1646435
H -1.1372852 1.8816179 -0.6509624
H 1.1364076 1.2827547 0.40017965
