10

C -1.2334083 0.17138559 -0.087447174
C -0.21885592 0.08247452 -0.99774116
N 0.56016994 1.151982 -0.3763544
C 1.2584181 0.6350357 0.62199306
N 0.92775416 -0.5726977 1.055554
C -0.22094844 -0.8585281 0.36676082
H 2.01511 1.2314217 1.1243203
H -0.62272125 -1.8645338 0.46247044
H -0.15099587 -0.16519779 -2.058385
H -2.3145227 0.18865775 -0.11117098
