10

C -0.41104007 0.76988935 0.60958934
C 0.09223721 -0.6440822 0.7466406
N -0.42155942 -1.4559555 -0.36487964
C -0.5121478 -0.5760766 -1.2683612
N -0.097001605 0.7577943 -0.84503365
C 0.9252006 0.4874303 0.20045254
H -0.89595723 1.5491492 1.1803493
H 1.8905993 0.95734626 0.32331538
H 0.286716 -1.1156496 1.7033105
H -0.857047 -0.7298451 -2.285383
