10

C -0.78283415 -0.45395438 0.40239025
C 0.16182458 -0.20172119 -1.46151334
N -0.85554033 -0.80982095 -1.02122321
C 0.65784972 -0.25312598 0.79807684
N 0.90683175 0.52972099 -0.44135609
C -0.14039761 0.90152370 0.54847617
H -1.53798611 -0.83027644 1.08322968
H 0.50717580 -0.18409608 -2.48979124
H 1.37421517 -0.55426565 1.54910704
H -0.29113866 1.85601571 1.03260388
