10

N 1.4972892 -1.5021678 -0.78271186
C 0.36905986 0.38986698 0.5189957
C 0.9732523 -0.60704553 -0.16468985
C -0.85548264 1.0372245 -0.23499806
C -1.17318 0.101639345 0.8160299
H -1.4656953 -0.8786479 0.40495598
H 0.9674958 0.9788482 1.2085477
H 1.4577687 -2.4619882 -0.4558736
H -0.9397489 0.8359134 -1.3064225
H -0.8307593 2.1063566 -0.0038334276
