10

N -1.5782279 -1.4484156 0.77233136
C -1.1902179 -0.31082663 0.849368
C 0.7529241 0.95090264 -0.54387563
C 0.30071273 -0.4685818 -0.61962044
C 0.03387381 0.35970467 0.6737245
H 0.6915373 0.16090016 1.5195639
H -0.56787044 -0.4309238 -1.279064
H -0.48596093 -1.7148777 0.06992149
H 1.7762462 1.2024502 -0.27543005
H 0.26698282 1.699668 -1.1669191
