11

C -1.2315717 1.1267372 -0.8446003
C 1.1728207 -1.1029333 0.7706582
C 0.23629473 0.03965713 0.4474454
C -0.4756004 0.00029586835 -0.8250202
N -1.5821228 2.1667397 -0.2817328
O 0.07815355 0.9664701 1.2340769
H -0.40845832 -0.7569798 -1.5876293
H 0.8497699 -1.5584058 1.710927
H 2.1777864 -0.7005843 0.92756456
H 1.202657 -1.862698 -0.0139983
H -2.019729 1.681701 -1.5376912
