11

C 1.0093447 -0.8077949 -1.1420703
C 0.21606013 -0.16336812 -0.059075598
C -0.88206494 0.6325988 -0.05195098
C -1.090561 0.88125527 1.331053
N -0.20082097 0.2893442 2.0754914
O 0.62858075 -0.3740979 1.2011657
H 1.005286 -1.8966444 -1.0344379
H 0.58384633 -0.5523517 -2.114077
H 2.049705 -0.4707383 -1.1162276
H -1.4564521 0.98709214 -0.8952325
H -1.8629237 1.4747047 1.8053619
