15

N -0.47273597 -2.2411382 1.3008099
C -0.3167561 -0.92377794 0.9007717
O -0.79744077 -0.0014096956 1.5487928
N 0.4146611 -0.7606125 -0.24540816
C 0.9322255 0.5391322 -0.6747628
C -0.13628489 1.5832818 -1.0147227
O -0.6082925 2.3036458 0.09058233
H -1.1882293 -2.3431103 2.0064034
H -0.4703705 -2.9552567 0.58982855
H 0.96963286 -1.5561775 -0.52498156
H 1.5274556 0.33945373 -1.5710105
H 1.5967908 0.9688243 0.08701707
H -0.94285583 1.0846912 -1.5760452
H 0.31880528 2.32144 -1.6855186
H -0.82660526 1.641014 0.76824385
