15

N 0.47490638 2.1487207 0.50883466
C -0.5226299 -1.0745176 -1.0926806
O -1.0890069 0.7156262 1.3446171
N 0.9496816 -0.12530358 0.5686504
C 0.3609032 -1.3929005 0.1482934
C 0.032215845 0.88253295 0.6636839
O -1.190243 0.11207671 -0.8531095
H -0.2537933 -1.7669803 0.97290385
H 0.13115872 -1.0005294 -1.9821886
H -1.5956589 0.25395948 0.5548165
H 1.210121 2.3314254 -0.15021805
H -0.25747645 2.8385408 0.56455946
H 1.7831322 0.117532715 0.05491233
H -1.1967458 -1.929031 -1.2581972
H 1.1634355 -2.111153 -0.04487765
