11

O 1.7539911 -0.9183539 -1.828621
C 0.73231256 -0.27000812 -1.9173145
N -0.033585582 0.08557 -0.8548087
C 0.34112504 -0.3216118 0.49201652
C -0.5801082 0.2539253 1.4706764
C -1.3456817 0.72685564 2.265808
H 0.32548302 0.09726104 -2.8785193
H -0.8781541 0.6180934 -0.9972191
H 0.3326517 -1.4160268 0.5664365
H 1.3676051 0.002599028 0.69611764
H -2.015639 1.1416962 2.9854274
