11

O -1.4460884 1.908488 -0.3081949
C -0.39113876 0.17158824 1.0511466
N 0.42445645 -0.94326 0.59814477
C -0.7105106 0.94803315 -0.24515297
C 0.047989838 0.27795467 -1.2949853
C 0.70510644 -0.7629971 -0.7279319
H 0.15028217 0.8227806 1.7464298
H -1.3152262 -0.16358447 1.530795
H 0.048933588 0.56367564 -2.3373628
H 1.1108245 -1.3616912 1.2059292
H 1.3753709 -1.4609873 -1.2188176
