11

C -0.3693516 -0.63850236 -1.0514575
C 0.5295967 1.0938731 0.28625053
O -1.3364906 -1.1687375 -0.19993767
C 0.8409805 0.34044203 1.3382772
O -0.13059978 0.7314261 -0.85334307
H 0.5442152 -0.69673246 1.4369378
H 0.7994665 2.1446843 0.21939816
H 1.3979232 0.7961367 2.1493542
H 0.55346507 -1.200027 -0.8734447
H -2.1630328 -0.6888198 -0.34748182
H -0.6661721 -0.7137428 -2.104553
