11

C -0.43453442 -0.25672079 -1.18107711
C 0.97426682 -0.04403957 1.28957334
O -1.20110842 -1.21544812 -0.52168391
C 0.42935696 0.98211320 0.64037220
O -0.33658881 0.96247878 -0.49048692
H -2.09181673 -0.85826916 -0.40200024
H -0.86570809 0.01429638 -2.15237141
H 0.82118625 -1.07801040 1.00495930
H 0.56488484 -0.68391925 -1.31242284
H 1.58120613 0.16513778 2.16339151
H 0.55885553 2.01238123 0.96174586
