11

O 0.62870512 1.44852085 -1.72915173
C 0.89477413 0.48504264 -1.05503472
C -0.05888708 -0.05226281 -0.02013663
C 0.50862938 -0.93934419 1.04103095
O 1.49087074 -1.61054939 0.86748811
C -1.49089234 -0.34643251 -0.38732046
O -0.88077713 1.04523275 0.46816976
H -1.63450935 0.18825431 -1.34328832
H -0.09129192 -0.96392285 1.97769450
H 1.81313854 -0.11479074 -1.18813003
H -1.17976030 0.86025194 1.36867862
