11

C -0.33131674 -1.04883372 -0.08426176
C -0.13517921 0.44230312 -0.26356379
C -0.68438265 1.31191945 -1.09342571
N 0.58666149 -1.41295533 0.99944942
C 1.14766834 -0.33368024 1.33542164
O 0.81282312 0.81851410 0.67873245
H -0.08758667 -1.61270264 -0.99140313
H -1.35958378 -1.30089099 0.19742570
H -1.42697255 0.98057213 -1.81057969
H -0.41557176 2.36236810 -1.08202063
H 1.89344060 -0.20661409 2.11422590
