13

C 0.4125908 0.9835185 1.1907058
C -0.219997 -0.71756506 -0.62425715
O -1.1435455 -1.2691172 -1.3522062
C -0.67786956 0.2530092 0.41562977
O -1.3035942 0.9794507 -0.5629278
N 1.0400745 -0.9890994 -0.9288688
H 1.7964053 -0.5748371 -0.41232803
H -1.8104295 -0.5131379 -1.2180593
H -1.3501972 -0.2577929 1.1330408
H -0.062441174 1.7594401 1.7966481
H 1.2464324 -1.4577368 -1.7985435
H 1.0990968 1.483106 0.50002706
H 0.97347426 0.3207621 1.8611393
