13

C 0.19928668 -1.5194832 -0.5990763
C -0.20557463 -0.055301383 -0.58414197
O -1.5713149 0.1311844 -0.2275017
C 0.73633546 0.7696343 0.30060706
O 1.9420683 0.6190444 0.2588534
N 0.098713666 1.6563592 1.1071686
H 1.2487501 -1.6166121 -0.882351
H -0.42550737 -2.0741396 -1.3061877
H 0.07712141 -1.9639064 0.39749554
H -0.112506524 0.3594259 -1.5927149
H -1.7558185 -0.43686917 0.5312208
H -0.8876416 1.8116878 0.97425085
H 0.6560878 2.318976 1.6223775
