13

C -0.01714626 -1.58427224 -0.72494519
C 0.70774802 -0.36414115 -0.23056631
O 0.75864818 -0.18479013 1.19849243
C 0.05905277 0.76270514 0.44597335
O 0.62019372 2.02593925 0.48028856
N -1.34277497 0.79562042 0.59908347
H -0.17056288 -1.52097196 -1.80734691
H -0.98474146 -1.67047894 -0.22748041
H 0.56255407 -2.48668049 -0.51002462
H 1.65825275 -0.15173652 -0.72738317
H -1.81323755 0.84464916 -0.29552508
H -1.60317803 1.60529233 1.14821214
H 1.56519154 1.92886526 0.65122192
