11

C -0.9891543 0.8931848 -0.115895495
C 0.058182172 -0.19540595 -0.17218047
C 0.6757179 -0.74024147 1.0442185
O -0.31374726 -1.4663624 0.33315846
C 0.8380262 -0.24476846 -1.4083737
N 1.4468728 -0.24779959 -2.3900623
H -1.7178793 0.7644554 -0.9201778
H -1.5128268 0.84629846 0.8425724
H -0.52578855 1.8783675 -0.22152933
H 1.6797057 -1.1557809 1.0040787
H 0.36089104 -0.33194754 2.0041912
