10

O 1.2534677 -1.3868403 0.98900706
C 0.3599718 -0.9476147 0.014771686
C -0.017512335 0.49803123 0.22202514
O 0.42124113 1.1496618 1.1461619
C -0.98232937 1.1505554 -0.75827515
O -1.4517137 0.55486435 -1.6920327
H 1.4040731 -0.63991004 1.5870615
H 0.7844502 -1.048315 -0.99656564
H -0.5662215 -1.5428002 0.018557012
H -1.2054272 2.2123675 -0.53071105
