10

O -0.7771234 1.2883776 -0.535847
C 0.3434403 -0.83291316 0.205182
C -1.5718248 0.48046216 -1.2091632
O 0.9657419 1.3890471 0.8477736
C 0.24899012 0.6704478 0.22005264
O 1.4735228 -1.2604302 0.9081111
H 1.784495 -0.522408 1.4505826
H -0.5897924 -1.2339585 0.63137805
H -2.2623417 1.2105087 -1.6853195
H 0.3848921 -1.1891336 -0.83275044
