12

O 0.40542474 1.1773182 -2.171354
C 0.75364774 1.2904247 -0.81487817
C 0.20993212 0.16979632 0.021178257
N -0.752925 -0.6121191 -0.4285102
N -0.9820926 -1.4217881 0.6265417
C -0.16158736 -1.0961999 1.6434886
N 0.6078228 -0.08930287 1.2990674
H -0.4854881 0.8061297 -2.2091393
H 0.4023775 2.240262 -0.38191342
H 1.847487 1.290988 -0.7494735
H -1.6812364 -2.143711 0.57138443
H -0.1633625 -1.6117977 2.5936081
