11

N 0.9919758 -0.8457948 -1.5262789
C 0.25010276 -0.22325253 -0.5560096
C 0.5883372 -0.27762234 0.81410116
N -0.12070498 0.38225833 1.7042441
C -1.1515388 1.0874666 1.2074391
N -1.5076773 1.1580436 -0.063928165
N -0.79930085 0.48418877 -0.96337664
H 1.5270027 -1.6583254 -1.2681048
H 0.5429971 -0.89901453 -2.4294655
H 1.4365141 -0.8601018 1.1706996
H -1.7577078 1.6521541 1.9106796
