13

N -2.8627386 1.2136947 0.2863242
C -0.34617534 0.61781 -0.17077011
C -1.7547433 0.9495387 0.096081205
N 1.237844 -1.211317 -0.42666158
C -0.17374064 -0.90704954 -0.24271424
N 0.49281037 1.1572021 0.8901649
H -0.7425255 -1.282059 -1.0985444
H -0.6004669 -1.3457191 0.6697096
H 1.4550885 1.0363383 0.590637
H 1.359362 -2.0940747 -0.90862584
H -0.092749104 1.02567 -1.1617501
H 1.6946071 -1.3126428 0.47211483
H 0.33342826 2.1526084 1.0040344
