13

N -0.12632428 0.9195293 -1.253195
C 0.34176245 -0.6472145 0.68486434
C -1.8863634 -0.5940268 -0.48440853
N 1.439331 0.27645558 0.97077835
C -0.7432262 0.09833009 -0.032965925
N -2.8492353 -1.1362789 -0.842409
H 1.1476425 0.9165385 1.7046214
H 2.2536254 -0.22702709 1.3125368
H -0.7751314 1.4199396 -0.4597332
H 0.86992574 0.9939728 -1.0394162
H -0.3375873 0.55683744 -2.1824844
H 0.7624956 -1.4494904 0.050726477
H -0.096915156 -1.1275655 1.5710847
