11

C 0.34747239 -1.78332784 -0.27890235
C 0.07121425 -0.34038534 -0.06349816
N 0.54791632 0.68631527 -0.60910240
C -0.12954277 1.80237763 0.05181143
C -1.08481750 1.24173387 1.07203699
O -0.90650476 -0.05875911 0.94296766
H -0.56985984 -2.30077062 -0.57381331
H 1.09937146 -1.89649977 -1.05784324
H -0.67270674 2.42005989 -0.67551551
H 0.70368006 -2.23893892 0.65019821
H 0.59377690 2.46819491 0.54166080
