12

C 0.53976667 0.8781641 -0.5965581
C -0.35854995 0.083680406 0.36411273
N -2.8127408 -0.12073005 -0.5633194
N 0.254478 -1.2219999 0.5800945
C -1.7427249 -0.0052149384 -0.14508058
O 1.8346959 0.9376048 -0.07278327
H 0.17108794 1.9001229 -0.70950997
H 2.0212104 0.05055929 0.26792848
H 0.5145418 0.39739254 -1.5876161
H -0.1623849 -1.6963146 1.3721961
H 0.11317534 -1.8135889 -0.23352419
H -0.3725558 0.6103245 1.32406
