11

C -0.21042599 0.23445687 0.28598586
C 0.005663526 0.4403005 -1.2123209
C 1.0301167 -0.31360674 0.99702024
O 2.109845 -0.36896494 0.47601596
C -1.3461769 -0.65254813 0.57698035
N -2.220658 -1.3704607 0.8118553
H -0.87943953 0.8889242 -1.6698886
H 0.86401385 1.0970623 -1.3716059
H 0.8625191 -0.6395342 2.0444357
H 0.2133622 -0.5130597 -1.7087466
H -0.42882004 1.1974306 0.7702683
