11

C -0.16605758 -0.93628472 -1.29101256
C -0.39842263 -0.11728318 -0.09241806
C 0.02131034 -0.92560583 1.13856874
O 0.64862884 -0.45369577 2.04636584
C 0.28680607 1.24594730 -0.17022373
N 0.03515527 -1.59552592 -2.21848024
H -0.08495670 1.81430271 -1.02626310
H -1.48688943 0.01336826 -0.00458821
H 0.09018379 1.80737357 0.74608041
H 1.37090269 1.12997049 -0.26900010
H -0.31666059 -1.98256690 1.14097118
