9

N -0.77373147 0.24483143 -0.8745086
C 0.57429636 0.31112072 -0.76231074
C 0.86945474 -0.111946315 0.5152227
C -0.3873812 -0.40897787 1.0870737
N -1.380349 -0.19006906 0.23758543
H -1.3398207 0.4787314 -1.6743152
H 1.196616 0.6446804 -1.5792149
H 1.8466306 -0.19529012 0.9680085
H -0.60571533 -0.7730806 2.0824587
