9

N -0.17981261 0.68884194 -1.1753073
C -0.4061539 -0.9554149 0.7932661
C 0.45245984 -0.24797434 -0.18045036
C 0.22758967 0.08809391 1.236241
N -0.8706411 1.6423488 -0.8957071
H 0.053202435 0.4283805 -2.1574974
H 1.3778814 -0.6661251 -0.5829055
H 0.45304954 0.7806246 2.0257027
H -1.1075752 -1.7587755 0.9366577
