11

C -0.20892175 0.2169391 -0.52654284
C 0.7935223 1.0089483 1.4075286
C -0.26096854 -1.2888049 -0.28221354
C -0.36240697 1.1244566 0.68755054
N 1.845514 0.7639433 0.7972179
O 1.0304025 0.7162921 -0.9164847
H 0.45238614 -1.566837 0.49617907
H -1.2614737 -1.6221962 0.011206813
H 0.02191657 -1.8022012 -1.2056774
H -1.0654309 1.9439471 0.78556186
H -0.9845399 0.50551265 -1.2543265
