11

C 1.0107893 -0.8096495 -1.1427982
C 0.21716966 -0.16251013 -0.06123578
C -0.8843318 0.6305673 -0.052312102
C -1.0923443 0.8814385 1.33246
N -0.19902797 0.29446387 2.0795596
O 0.63331395 -0.36952418 1.2011231
H 1.0075535 -1.8991652 -1.0341852
H 0.58172345 -0.55402017 -2.1136227
H 2.0515897 -0.47071156 -1.1191509
H -1.4599994 0.98439497 -0.89541984
H -1.8664359 1.4747161 1.8055822
