9

O -2.34417997 0.75572238 0.02110917
C -1.19234789 0.43613068 -0.07216850
C -0.45260427 -0.37762350 0.90894405
N 0.86597723 0.48286970 -1.32017091
C 1.38484299 -0.22852345 -0.39235757
N 0.77936484 -0.70234650 0.76972307
O -0.46808138 0.83184106 -1.16127706
H -1.00050000 -0.71100793 1.78691588
H 2.42752857 -0.48706240 -0.54071838
