11

N 0.29085729 1.28220972 1.55427831
C 0.61983953 -0.80307759 0.17719412
C 0.04961626 0.46804841 0.45043779
N -0.67299370 -0.11377810 -1.44290273
C 0.11914859 -1.13547427 -1.06034578
N -0.73926116 0.87682151 -0.52981101
H 0.33666089 0.77926078 2.42818876
H -1.19874669 -0.01970552 -2.29487402
H -0.37754229 2.03901503 1.61071056
H 0.27027754 -2.00329427 -1.68563609
H 1.30214355 -1.37002575 0.79275987
