10

O -0.49392182 1.8933576 0.45418173
C 0.76519585 -1.1731802 -0.66342205
C -0.045703214 0.61515826 0.2815202
C 1.173454 0.16862771 -0.36818278
N -0.5108621 -1.4684979 -0.39196375
N -1.0476977 -0.37897605 0.10265495
H -1.9806784 -0.40057284 0.48586002
H 1.3780913 -1.9461195 -1.1121739
H 0.16735971 2.4661305 0.040389396
H 0.5947624 0.22407265 1.1711361
