10

O -0.71551 1.7459314 -0.58728945
C 0.07491347 0.6216416 -0.41714984
C 0.6624884 -0.92933095 1.0512195
C 0.851104 0.4407034 0.83480257
N -0.21643928 -1.5413896 0.21179216
N -0.6768074 -0.6508902 -0.59233105
H -1.2321767 -0.937456 -1.386493
H 0.8531056 0.56301206 -1.20392
H 1.0872585 -1.5384657 1.8402673
H -0.68793666 2.226244 0.24910168
