10

O 1.23055326 0.59779273 -1.42601624
C -0.84851406 0.24846441 1.27510734
C 0.69046048 0.00147293 -0.29887526
C 0.37076490 0.82194523 0.89578584
N -1.35967797 -0.67051639 0.41142125
N -0.55294820 -0.76499923 -0.58447142
H -0.68277809 -1.50417091 -1.26124143
H 1.37391753 -0.77169929 0.10500454
H 1.23212512 1.54762950 -1.25625687
H -1.45390302 0.49408077 2.13954243
