10

O -0.79517895 -1.7333432 -0.7465265
C -0.29743347 -0.5865518 -0.23518662
C 0.8655243 0.12425943 -0.42020425
C 0.71127063 1.2355734 0.4455012
N -0.43446562 1.2135439 1.1010832
N -1.0394576 0.08552799 0.6684494
H -0.15636864 -2.1031349 -1.3671165
H 1.690472 -0.11701196 -1.0743835
H 1.4023128 2.0516295 0.60720026
H -1.9466755 -0.17049262 1.0211835
