9

O 1.788186 0.096360415 0.87279624
C 0.59070414 -0.05398859 0.2989009
N -0.2696191 -1.0092804 0.6581724
N -1.126826 0.14708678 -1.0492327
N -1.2951038 -0.94526637 -0.16408093
C 0.042886958 0.7141819 -0.72120005
H 1.8790803 -0.6002283 1.5388136
H 0.42726067 1.5891026 -1.2231802
H -2.036569 0.062032048 -0.21098928
