11

O -1.2741228 -0.18058963 1.9318701
N -1.1700003 -0.7660873 0.67116135
C -0.23991284 -0.23112568 0.0062015313
C 0.2963422 -0.4653419 -1.377847
O 1.2575748 0.58839893 -1.1722828
C 0.79119074 0.8573564 0.16378817
H -2.0048625 -0.6707175 2.3299983
H -0.3906003 -0.24548472 -2.2026699
H 0.77492887 -1.4364294 -1.5462838
H 1.5617502 0.67580587 0.9223334
H 0.397712 1.874215 0.2737306
