11

O 1.1938006 -1.110785 -0.21738105
N -0.44232118 1.4645035 0.70494735
C 0.4819195 -0.13527077 -0.9785558
C 0.33293203 -0.9377361 0.92466074
O -1.3064656 2.041291 -0.041486982
C -0.4293527 0.17764945 0.24161525
H -1.5466174 0.8586048 -0.4390735
H -0.02369596 -0.5861732 -1.8396299
H -0.24207158 -1.8494982 1.1254945
H 1.1033158 0.708172 -1.304986
H 0.87855643 -0.6307576 1.8243955
