17

C 0.17400634 0.18439403 -0.16035128
N -0.87040114 -0.59164596 -0.103150986
C -1.3847843 -1.1861317 1.1025149
O 0.36440936 0.7522288 -1.2851185
N 1.0181879 0.41734877 0.886565
C -1.2911872 -0.06202062 -2.0664072
C 2.262952 1.1338663 0.69404495
H -0.87850976 -0.9738873 -2.481138
H 2.6327178 1.4843292 1.6600472
H -1.1575049 0.8106562 -2.7008457
H -1.4225599 -0.4741225 1.9397181
H 3.0364006 0.51843625 0.21651198
H -2.3201663 -0.16511115 -1.734629
H 2.0689323 1.9973637 0.054624796
H 0.9841248 -0.25221023 1.6366524
H -2.4115622 -1.5272146 0.9195294
H -0.80505526 -2.0662792 1.421432
