17

C -1.5308696 2.2383103 0.13942172
N -0.66295433 1.1794087 -0.34072545
C -0.112937264 0.32096338 0.5953158
O -0.23074844 0.5215455 1.7955426
N 0.6005102 -0.7433438 0.07925626
C 1.0462165 -1.7876697 0.9795721
C 0.8320043 -0.93724245 -1.3373804
H -2.465792 1.8622012 0.57486224
H -1.0086062 2.8074124 0.913006
H -1.7627687 2.9060538 -0.69261
H -0.93096465 0.7732418 -1.2251328
H 0.52894807 -2.7367244 0.7816806
H 0.8296132 -1.4723554 2.000495
H 2.1250124 -1.9556676 0.8750104
H 0.99430066 0.02445076 -1.8347565
H 1.7410775 -1.5331825 -1.4677566
H 0.007958164 -1.4674022 -1.8358005
