11

O -2.2951877 -0.6247596 -0.4263887
C -1.1529005 -0.37450674 -0.16157483
C 0.11497002 -1.2124023 0.042965867
N 0.7572408 -0.04940768 0.73061025
C 0.85570115 0.9819066 -0.286036
C -0.44242877 0.81169015 0.41424173
H -0.06044592 -2.0386057 0.73648465
H 0.65843964 -1.575531 -0.8334856
H 0.95819813 0.69463396 -1.3311428
H 1.4523308 1.8379266 0.014610973
H -0.8459179 1.5490556 1.0997145
