9

O 1.1661751 -0.4299378 1.6936785
C -0.7260285 0.49840283 0.12991239
N -0.23732476 -0.84781975 -1.5991355
N -1.167001 -0.29484576 -0.99360466
C 0.5078842 0.27782747 0.80766016
N 0.6026533 1.2518259 0.019054234
H 2.0826042 -0.112361856 1.7279699
H -0.6689902 -1.3620334 -2.38237
H -1.5599722 1.0189425 0.59683496
