11

N 0.5614649 -1.4116911 -1.3645804
C 0.17641121 -0.43856287 -0.45163435
C -1.0226051 0.10369725 -0.10534488
C -0.7132119 1.1290498 0.85742354
C 0.62877244 1.1180161 1.0130551
O 1.1903464 0.15727267 0.21209933
H 1.4323384 -1.8577482 -1.1116916
H -0.16232185 -2.0961168 -1.5375056
H -1.9957724 -0.17054734 -0.48206052
H -1.4156837 1.7789062 1.3574978
H 1.3202615 1.6877242 1.6127415
