11

N 1.4056463 -1.0510981 -0.7466429
C -1.4264418 0.28383446 1.04476
C -0.6009863 -0.78264934 0.68766797
C 0.40565962 -0.3492922 -0.19164911
C -0.8320614 1.4132715 0.30121887
O 0.3460661 0.9290888 -0.47826844
H -1.5143249 1.8551401 -0.43136466
H 1.9632366 -0.632792 -1.4746137
H 1.3860434 -2.0552013 -0.6832136
H -0.44512296 2.2028909 0.9536892
H -0.6877147 -1.8131926 1.0184166
