10

O 2.3621633 -0.3997255 0.2765258
C 1.1719091 -0.19737032 0.1361055
N 0.33114934 0.5724607 0.9230119
C -0.97258425 0.5535465 0.43452996
C -0.97563803 -0.22318499 -0.6632431
N 0.32606345 -0.68049234 -0.84837186
H 0.6601228 1.0643629 1.7348868
H -1.773434 1.0900421 0.914977
H -1.7811152 -0.4940853 -1.3276469
H 0.6513634 -1.2855538 -1.5807753
