10

N 0.32004362 1.1721407 -1.1467087
C -0.08522498 -0.07395724 -0.6446958
C 0.6200202 -0.63870704 0.5564581
C 0.66012347 2.2170765 -1.5560418
C -0.7872649 -0.13208102 0.68230164
H 1.4137669 -0.036497567 0.98620576
H -0.94116324 0.811006 1.1965609
H -0.39999622 -0.7609955 -1.4255774
H 0.79802436 -1.710164 0.5673874
H -1.5983293 -0.8478209 0.7841102
