10

N 0.90593946 1.9243238 -1.8485988
C 0.35283095 1.0782683 -1.285842
C -0.32741556 0.022421042 -0.573427
C -0.4830279 0.12104256 0.9277021
C 0.46498817 -0.87673146 0.35036573
H -1.142736 -0.43233234 -1.1280423
H -1.4225681 -0.22781527 1.3442808
H -0.068990506 0.99809486 1.4132645
H 0.19254772 -1.9265023 0.3607448
H 1.5284317 -0.6807694 0.4395524
