10

O -1.8173605 0.77202594 -0.52208036
C -0.506116 0.36847082 -0.7793025
C -0.003518834 -0.51550615 0.34432226
O 1.460517 -0.8416709 0.1748059
C 1.5434697 0.13390222 0.993686
O -0.6880025 -1.2281533 1.0160902
H -0.42920676 -0.23873515 -1.6987221
H -2.2402816 0.04539529 -0.042141274
H 0.11765642 1.2575163 -0.8940223
H 2.562843 0.246755 1.4073642
