12

N -0.92806554 2.0776591 1.7889655
C -0.8555468 1.2744807 0.9629346
C -0.75951785 0.22169156 -0.06629414
C 0.39797843 0.47592697 -1.0856
N 1.4874597 -0.40866563 -0.67849
C 1.0048308 -1.1947038 0.19587061
N -0.34364063 -1.0548115 0.50903606
H -1.7321131 0.13296285 -0.55996644
H 0.07296479 0.21362884 -2.0973904
H 0.72542936 1.518028 -1.0896436
H 1.5744532 -1.9885253 0.6705359
H -0.64423233 -1.2676718 1.450042
