12

N -0.79600591 2.06902081 1.74371112
C -0.18840234 1.53468720 0.91922233
C -0.42844133 -1.36643899 0.38653794
C -0.10755658 0.95774923 -1.43416337
N -0.61197166 0.96670130 -2.47322500
C 0.57909926 0.81768050 -0.12086370
N 0.78474973 -0.56299766 0.26282483
H -1.04300040 -1.38445409 -0.52420646
H 1.42684678 -0.98220010 -0.40080776
H 1.55111592 1.31995146 -0.20203329
H -0.13606052 -2.39138915 0.63034441
H -1.03037293 -0.97831051 1.21265905
