9

O 0.37734394 -1.74973410 -0.87252532
C -0.66941503 0.95077380 0.90232542
N 0.75708034 0.51799395 -0.54106011
N 0.27611738 1.54494466 0.21209895
C 0.07841135 -0.60239935 -0.25515107
N -0.83939314 -0.38285767 0.65510258
H 1.51029443 0.65439927 -1.19566399
H -1.27006731 1.49358185 1.61991154
H -0.22037181 -2.42670243 -0.52503820
