9

O 1.5825142 -0.27893773 -1.5384232
C 0.6223515 -0.14896154 -0.6128272
N 0.3487932 0.9943993 -0.018479642
N -0.6687928 0.6251162 0.80196774
C -0.93367565 -0.67980415 0.6547436
N -0.129347 -1.2144507 -0.24146649
H 1.9874305 0.5914723 -1.6566106
H -1.101268 1.3071547 1.4038299
H -1.7080058 -1.1959884 1.2072657
