9

O -1.4827081 -1.4729139 0.23357815
C 0.60179543 1.066811 -0.53045976
N 1.460693 0.37346867 0.22114918
N -0.5822515 0.48408103 -0.7164598
C -0.49236208 -0.5991869 0.05895777
N 0.68918115 -0.79583704 0.6462643
H 1.1538616 0.10478308 1.3671415
H 0.8809855 2.0107927 -0.97953504
H -2.229195 -1.1719986 -0.30063644
