10

O 0.21800515 1.8196785 1.9970957
C 0.31388843 -1.2056787 -1.2376719
C -0.5087644 0.052655566 0.53718233
C 0.30243886 1.272545 0.9308733
N 0.39579228 -0.9433306 -0.0002555063
H -1.018734 -0.3348766 1.4231348
H -0.42574185 -0.750881 -1.9107494
H 0.98412204 1.636448 0.13305157
H -1.2663482 0.3805994 -0.19884443
H 1.0053416 -1.9271595 -1.6738162
