11

N 1.3685129 -0.66943824 2.5934408
C 0.6605635 -0.67493165 1.6807641
C -0.24395546 -0.6532566 0.5154472
C -0.53356606 0.74201506 -0.07464325
C 0.24288067 0.22062185 -1.2916046
O 0.4043593 -1.0766845 -0.6854309
H -1.1206937 -1.2658719 0.74856174
H -1.5930022 0.9317376 -0.24475822
H -0.084517136 1.5809562 0.45970747
H -0.31180298 0.16318807 -2.2312744
H 1.2112209 0.7016644 -1.4702098
