12

N 0.10497899 0.73187282 -1.55816576
C -1.21852723 -0.63444069 0.13059640
C 0.11530306 -0.30946751 -0.56335352
O -0.60062378 -0.42996467 1.43291102
C 0.58184899 -0.02934386 0.85905004
N 1.62931716 0.43704992 1.36887100
H 0.59882812 -1.19830696 -0.97806064
H -1.59911822 -1.65278731 0.03260325
H -2.01124318 0.09736571 -0.04530934
H 1.55509976 0.49914654 2.38484314
H -0.19640933 1.61084644 -1.14637574
H 1.04054566 0.87802968 -1.91760980
