12

N -0.7453453 -1.0218841 -1.0349438
C -0.23425838 -0.63390666 0.27829483
C 0.5694872 0.6636305 0.08521863
O -0.17107475 1.573646 -0.67609936
C 0.8915368 1.2582726 1.3966279
N 1.1529703 1.680514 2.4394526
H -0.04178336 -1.5321319 -1.5605745
H -1.5587021 -1.6147629 -0.9503592
H -1.0910922 -0.4100448 0.92704624
H 0.38508302 -1.3920643 0.7734626
H 1.529822 0.42535248 -0.4017966
H -0.68664324 1.0033792 -1.2763293
