11

N 1.3459758 0.5677112 1.8408042
C 0.64074427 0.26587948 0.83475876
C -0.7697909 -0.17746569 0.8543999
C -1.1587205 -0.3943867 -0.39700717
C -0.013660456 -0.1068688 -1.3254007
O 1.0565608 0.2969289 -0.4667414
H 2.286607 0.841391 1.5532513
H -1.3313357 -0.28350458 1.7746372
H -2.1292095 -0.7263773 -0.7421859
H -0.22948848 0.7038212 -2.0309374
H 0.30231786 -0.9871288 -1.8955781
