12

N -0.27003184 -0.013338074 -2.04876
C -0.15709585 -0.03884403 -0.6530312
C -1.0313075 -0.3113423 0.33408582
N -0.35872614 -0.09724929 1.5485386
C 0.9324785 0.33497292 1.3305395
O 1.7717509 0.65766174 2.1476223
N 1.051299 0.31301105 -0.053648744
H 0.2927302 -0.7267214 -2.498431
H -1.2321339 -0.124222256 -2.3396218
H -2.0465045 -0.67094415 0.29268146
H -0.76752096 -0.088289864 2.466263
H 1.8150619 0.7653057 -0.5262381
