12

N 2.166182 0.39441922 -0.69313884
C 0.88434374 0.16679978 -0.2812215
N 0.70572114 -0.8431164 0.5846016
C -0.5391209 -1.0236982 1.0059355
C -1.6073108 -0.23835732 0.587817
C -1.2918124 0.76563865 -0.32086647
N -0.060876697 0.98452294 -0.7693508
H 2.2881339 0.9614905 -1.5160345
H 2.829391 -0.34507522 -0.52977496
H -0.69127536 -1.8427618 1.7089084
H -2.6179292 -0.40232855 0.9391203
H -2.0654461 1.4224663 -0.7159956
