12

N 0.24211603 1.2729162 -0.92610604
C 0.057011094 -0.6866486 -0.011005802
C -0.7946637 0.19481221 -0.88398945
C -0.23912525 -2.0213733 0.3866198
N -0.44695222 -3.125523 0.6701293
C 0.5809817 1.4019997 0.38693538
N 0.44334698 0.24102454 1.0024642
H 0.9290468 0.13859941 -1.0333791
H 1.1246383 2.2364333 0.81385744
H 0.8049033 -0.0025567645 1.9110126
H -1.7336333 0.54438215 -0.43026364
H -0.9676698 -0.19406584 -1.8862748
