12

N -0.67118406 1.0289847 0.0075658592
C 0.56847686 1.1550224 0.61749667
C 0.77139366 -0.4890473 -0.9316698
C -0.7059705 -0.30982807 -0.6097725
N -1.6656877 -2.1304345 1.0813386
C -1.2642746 -1.3376567 0.33777255
N 1.3774116 0.29733652 0.041149445
H -1.4780488 1.3003318 0.5554691
H 0.8766098 1.993096 1.2243128
H 2.3723626 0.29534972 0.20471558
H -1.353248 -0.31194794 -1.4932052
H 1.1721591 -1.4912062 -1.0351732
