9

O 1.008458 -0.9503033 -1.4965767
C 0.3105239 -0.3506715 -0.51821125
C -0.9418407 -0.622831 -0.0787706
O -1.1982768 0.26882613 0.9371227
C -0.09069127 1.0072238 1.0353161
N 0.84670395 0.6928503 0.19987549
H 1.864924 -0.5023689 -1.5405651
H -1.7204319 -1.3243173 -0.32639438
H -0.07936909 1.7815919 1.7882035
