11

N 2.0040388 -0.058647376 -0.8330656
C -1.5530468 -0.36299405 0.8221288
C 0.77380985 -0.04600188 -0.31281006
C -0.05405822 1.1229954 -0.45581028
C -1.2450435 0.88098943 0.16546014
N -0.7586541 -1.3692662 0.91666394
O 0.48698616 -1.181032 0.3098982
H -2.026471 1.6389263 0.17564285
H 2.608894 -0.862364 -0.757472
H -2.5147684 -0.5427519 1.2919351
H 2.278313 0.7801462 -1.322571
