11

N -0.16332641 -1.3003999 1.3429
C 0.14529683 0.8398403 0.42050433
C -0.26946265 -1.7078885 0.13091423
C 0.034351423 0.40718895 -0.9705396
C -0.1813922 -0.9149245 -1.0949197
N 0.35756004 2.120054 0.3585661
O 0.06294115 0.103236265 1.5015752
H 0.29256257 1.937669 -0.8911066
H 0.45131904 2.7315052 1.1643739
H -0.29033864 -1.434277 -2.0436206
H -0.43951118 -2.7820036 0.08135244
