11

N 1.6085458 1.3363247 1.2899355
C 0.781519 0.64833385 0.63994426
O 0.23349999 -0.48346025 1.1436464
C -0.4620101 -1.1529759 0.09803425
C -0.75204164 -0.020896051 -0.88368255
O 0.31449595 0.88927263 -0.6208426
H -1.7084358 0.47193372 -0.67644274
H 1.8631347 2.1679394 0.76737916
H -0.7087568 -0.31779137 -1.9336146
H -1.3569685 -1.6183623 0.51513267
H 0.18701716 -1.9203181 -0.3394896
