9

O -0.2308705 -0.17053945 -1.8432553
C -0.20168594 0.7682202 0.45219558
N 1.3792707 -2.2188108 0.19850732
N 0.7833076 -1.3160189 -0.13739355
C 0.09076306 -0.27843577 -0.5093726
N 0.14302693 0.68705803 1.6775274
H -0.14800765 1.5224276 2.1821296
H -1.0796386 -0.60276634 -2.0121274
H -0.7361656 1.6088657 -0.008211001
