9

O 1.5839167 -0.2786373 -1.5403743
C 0.6211683 -0.14681222 -0.61275196
N 0.34815934 0.9930641 -0.015038722
N -0.66847545 0.62521046 0.8054309
C -0.93526495 -0.6802398 0.653042
N -0.13063064 -1.2120577 -0.24677005
H 1.9917746 0.58938926 -1.6566296
H -1.1014873 1.305593 1.4082557
H -1.7091606 -1.19551 1.204836
