12

N -0.36538798 1.4169731 1.7891883
C 0.005736094 0.56488985 0.78203803
N -1.0002322 0.20493212 -0.15720782
C 1.0520344 -0.830252 -0.4960646
O -0.90488034 -1.2456448 -1.9564208
C -0.37747252 -0.6197998 -0.9111224
N 1.1778114 0.04601328 0.65336114
H 0.3999854 1.8447955 2.285249
H -1.1424886 2.0228393 1.5731667
H 1.2385246 -1.8795708 -0.23711899
H -1.8303485 -0.96510315 -2.0237548
H 1.7467184 -0.5600725 -1.3013133
