11

N 0.9512358 1.1480563 1.1179378
C 0.1210022 0.32366958 0.35761046
C -1.2027395 0.12732098 0.31327653
O -1.509207 -0.73019886 -0.7363386
C -0.34879392 -1.0906576 -1.3580645
O -0.27725157 -1.805877 -2.3212197
N 0.6625504 -0.47171512 -0.65270376
H 1.6144145 0.6232741 1.6784985
H 0.42167026 1.7634057 1.719706
H -2.0266628 0.4954644 0.90308
H 1.5937821 -0.38274255 -1.0217829
