11

C -0.2421192 -0.9084484 -0.91138095
C -0.31511065 -0.5440247 1.6832831
C -0.11441207 -0.20771411 0.24867155
C 0.40744945 1.2047652 -1.3185469
N 0.087821506 0.09812954 -1.9248605
O 0.22842747 1.1168761 -0.0155628715
H 0.3318594 -0.98686844 -2.17143
H 0.72349554 2.1498544 -1.7370815
H 0.584646 -0.34224215 2.2757142
H -1.1422589 0.027476236 2.11863
H -0.54979855 -1.6078041 1.7525641
