11

C 1.0106529 -0.80914164 -1.1423177
C 0.21767902 -0.16459107 -0.058546253
C -0.8837593 0.629178 -0.051489856
C -1.093208 0.88246965 1.3311483
N -0.19984835 0.29537272 2.0767298
O 0.63150287 -0.36971778 1.2024599
H 1.008315 -1.89808 -1.0373023
H 0.5842555 -0.550946 -2.1129153
H 2.0515277 -0.47052115 -1.1163738
H -1.4597427 0.98164594 -0.8945564
H -1.8673748 1.4743313 1.8031635
