10

N -0.5680018 1.1645206 -1.2859492
C -0.15322177 0.24995956 -0.32509428
C 0.6884293 -0.81033266 -0.3944458
O 0.6911647 -1.4121678 0.8445294
C -0.14947079 -0.67548764 1.5739625
N -0.681558 0.32278132 0.9540674
H 0.14360794 1.418419 -1.9560091
H -0.97498983 1.9856665 -0.8598871
H 1.306561 -1.2642212 -1.1521229
H -0.30252072 -0.9791376 2.600949
