9

O 1.6220917 1.2136155 -0.6813582
C -0.19099994 -0.06291259 0.24867263
C -3.401639 -1.7497123 -0.50504637
C -1.2317339 -0.6091847 0.006167885
C 1.1037737 0.59768003 0.47285444
N -2.3798876 -1.2106161 -0.2598774
H 0.98714566 1.3978915 1.2095413
H 1.8086585 -0.1347655 0.89493597
H 1.6825908 0.5580041 -1.3858901
