12

O -1.06303946 -0.50314368 -0.10841293
C -0.25465603 -0.63353376 1.05014678
C 0.84676253 0.38390138 0.78482010
O 0.97670558 0.33772481 -0.62509057
C -0.21953701 -0.17075899 -1.18076520
O -0.83447232 0.71379050 -2.02663885
H 0.14630046 -1.65254754 1.12493715
H 1.80926569 0.11870285 1.23340918
H -0.86688260 -0.41142677 1.92709843
H 0.55696378 1.38785658 1.11774185
H 0.02318114 -1.05130041 -1.78846327
H -1.12059171 1.48073474 -1.50878242
