12

O 0.76696676 0.5763839 -0.73368496
C 0.9894341 0.3052954 0.6388619
C 0.055385064 -0.8683783 0.90104085
O -1.3561338 1.0253935 -1.5564624
C -0.4952993 0.060055446 -1.1057276
O -1.0225315 -0.59070337 0.021416811
H 0.72871447 1.1736954 1.2558327
H -0.35628968 -0.6356663 -1.942513
H -0.3320531 -0.9123523 1.9214109
H -1.5522661 1.6249553 -0.82141083
H 0.52597886 -1.8251172 0.640386
H 2.0480943 0.06643823 0.78084993
