10

N 0.60771865 -0.17404582 3.3048568
C 0.35436958 -0.028270459 2.186051
C 0.043239493 0.13621043 0.7996969
N -0.6527412 1.1231121 0.2840525
C -0.7012343 0.86501807 -1.0552756
C -0.025628105 -0.29243955 -1.3510151
N 0.44898823 -0.7529543 -0.15345272
H -1.2213523 1.5243876 -1.7352926
H 0.15257213 -0.8138805 -2.2776473
H 0.9940677 -1.5871376 -0.0019738688
