10

N 0.75734092 -0.38098983 3.20743740
C 0.37411845 -0.32883188 2.12214149
C -0.10541905 -0.26468914 0.76628455
N 0.57077047 0.39610922 -0.16146048
C -0.21247437 0.23221231 -1.38612242
C -1.40553284 -0.61150779 -0.97049616
N -1.23292302 -0.85304856 0.36630409
H -0.54752942 1.20027587 -1.77165116
H 0.36703352 -0.28153838 -2.15905776
H 1.43461522 0.89200814 -0.01337953
