10

N -0.24869114 0.12431959 -1.4397494
C 0.32840472 1.2819073 0.39573902
C -0.69797146 -2.0286577 -0.40196833
N -0.9946566 -3.1434703 -0.3882976
C 0.07878222 1.4453148 -1.0153435
C -0.3186247 -0.63810146 -0.38834724
N 0.021955656 -0.024424745 0.774976
H 1.3044252 1.3746068 -0.35819882
H 0.081825115 -0.45576793 1.6833524
H 0.444551 2.0642734 1.1378378
