10

C -0.9326091 0.38184866 2.3657606
C -0.47561896 0.20918661 1.2666471
C 0.06550131 0.0051266192 -0.035111565
C 1.3403549 0.11965354 -0.5495648
N 1.306915 -0.19693503 -1.8679247
N 0.08959874 -0.50094765 -2.201362
N -0.6654506 -0.38280016 -1.1099626
H -1.329028 0.538788 3.3449764
H 2.254092 0.40344062 -0.050585035
H -1.6537554 -0.5773612 -1.162874
