10

C -1.7027463 -2.071228 0.65602505
C -0.15904678 1.2188915 0.2343958
C -0.9231203 -1.2146193 0.3498932
C -0.026629295 -0.16076495 -0.0012690546
N 0.90735066 1.8321133 -0.26284406
N 1.6176555 0.837264 -0.7614384
N 1.1268914 -0.37353164 -0.6435893
H -2.3904006 -2.8422477 0.9218059
H -0.95066947 1.7650946 0.7228837
H 2.500715 1.0090284 -1.2158629
