10

N 0.30536982 -0.98748144 -0.48466126
C -1.08044920 -1.04135618 0.26328348
C -1.14050253 0.24179325 0.70864385
C 0.87845236 0.35601410 -0.37518509
C 0.00726809 1.07390693 0.33746749
H -1.96970294 0.62907094 1.29103920
H 0.13393180 -1.27862227 -1.44751549
H 0.89396567 -1.70799814 -0.06535892
H 1.83305384 0.59599789 -0.82421325
H 0.13861314 2.11867495 0.59649999
