10

N -1.0490538 0.2633401 0.36219627
C -0.66064346 -0.96774155 -0.09911051
C 0.6682592 -0.8864943 -0.43765205
C 1.0948267 0.44428852 -0.17013967
C 0.011147649 1.1303309 0.32253605
H -1.9739805 0.49678037 0.68049574
H -1.35886 -1.7903306 -0.14609718
H 1.2743849 -1.6889857 -0.8333921
H 2.087591 0.8433167 -0.32430425
H -0.09367164 2.1554956 0.6454677
