10

O -1.2996471 0.040999256 -0.022652255
C 0.029199265 0.31756896 0.44262296
C -1.4782565 0.43801323 -1.2689509
O 0.130935 -0.0847246 1.7558743
C 1.0387698 -0.4679964 -0.39685413
O 2.2058074 -0.38075173 -0.11449504
H 1.0764239 -0.2599876 1.9033096
H 0.19172095 1.3967978 0.31637332
H 0.6482469 -1.1453401 -1.172801
H -2.5431993 0.14542131 -1.4424267
