11

C 1.379169 0.006012614 0.021075066
N 0.23889102 -0.6243418 -0.6307204
C -0.9971495 -0.501334 0.11048972
C -1.4258326 0.9015761 0.33874777
N -1.7079613 2.0135062 0.4732044
H 1.2462186 1.0823197 0.20854014
H 2.2649784 -0.13351473 -0.6048474
H 1.5655869 -0.4893741 0.9804254
H 0.11649161 -0.23929562 -1.5600852
H -1.7959732 -1.0258329 -0.422348
H -0.88441837 -0.98972094 1.0855185
