11

C 0.26300398 -0.7366592 0.98027676
N -0.7386479 -0.9262791 -1.1598974
C -0.18729268 1.1282022 -0.40612352
C -0.34351647 -1.5980048 -0.21023574
N 0.68364966 0.52016723 0.46040484
H 0.25331256 1.9020153 -1.0354805
H -0.58252347 -0.61958283 1.6656287
H 1.0755386 -1.2486675 1.499601
H -1.1703988 1.360219 -0.00052419706
H 1.6368271 0.5037608 0.116063766
H -0.8899526 -0.28517112 -1.9097136
