11

C -0.75515145 0.7655989 -0.16023424
N 0.71985334 1.0114061 -0.088250846
C 0.45587698 -1.1183364 0.39692274
C 1.4738849 0.0017724513 0.2646113
N -0.8401766 -0.6694616 -0.17204642
H -1.2170991 1.1994336 0.7359834
H -0.8786716 -0.9857856 -1.1367095
H 0.3560385 -1.3268675 1.4724385
H -1.2035902 1.2250242 -1.0498029
H 0.7913057 -2.0479343 -0.07374688
H 1.0977294 1.9451499 -0.1891652
