11

C 1.3815911 0.006246363 0.021066329
N 0.24037668 -0.62588435 -0.6329463
C -0.9969473 -0.50013524 0.10842002
C -1.4267284 0.90243363 0.33750403
N -1.7131554 2.0129128 0.47756436
H 1.2493812 1.0824615 0.20868105
H 2.268583 -0.13445625 -0.60198116
H 1.5635301 -0.49008495 0.98067224
H 0.11468454 -0.24281225 -1.5622205
H -1.7983854 -1.0238961 -0.4216878
H -0.88293 -0.98678476 1.0849277
