9

O 1.6356384 0.6409283 -0.38262555
C -0.32351643 1.0072786 0.9973147
N -1.3293822 -1.0629694 -0.56462276
N 0.2378246 0.010686891 1.5428096
N -0.14038776 -0.7898522 -0.8010638
C 0.41664293 0.20578094 0.078368865
H -0.92031157 1.8622876 1.2778703
H 2.015038 -0.0725193 -0.9135128
H -1.5915459 -1.8016216 -1.2345383
