9

O 1.30024152 -0.91269624 -0.84193936
C 0.31849652 1.28957889 -0.59114800
N -1.54433380 -0.13903125 0.90092358
N 0.96019835 1.12919931 0.48975932
N -0.60017451 -0.83112053 0.48405335
C 0.42175817 -0.07701903 -0.19561928
H -2.18022809 -0.78750889 1.38902081
H 1.29039908 -1.75913429 -0.37477926
H 0.03364266 2.08773225 -1.26027113
