11

C 0.4119322 -1.812124 0.1295376
O -0.45292434 -1.0843544 1.011406
C -0.07532491 1.7533134 -0.008676541
C -0.18880752 -0.5517313 -0.26201814
O 0.6189855 0.5561049 -0.32492876
H -0.4236257 1.7413093 1.0306151
H 1.4620615 -1.8084843 0.41180167
H -0.937384 1.9002298 -0.6764908
H -1.0574534 -0.5110552 -0.9264021
H 0.012770895 -2.7578022 -0.23504527
H 0.6297698 2.5745938 -0.14979888
