11

C 0.13349776 -0.045104586 0.4803765
O -0.32307652 -0.24476688 -0.71465546
C 0.37739304 -1.0880712 1.4977571
C -0.4840791 0.8770625 -1.608193
O -0.022932397 -0.72493184 2.6679919
H -0.5050015 1.814149 -1.0489762
H 0.26565513 0.9843921 0.8269692
H 0.35133162 0.862544 -2.31134
H -1.4237721 0.71909285 -2.136529
H 1.5257906 -1.0651628 1.2646955
H 0.105193324 -2.0892031 1.0819036
