11

O -2.28182182 -0.95471721 0.96084958
C -1.82218022 0.14582228 0.38118731
N -0.61027370 0.45861943 0.88645848
C 0.52140598 0.51462630 0.32058632
O 1.57304228 1.12150471 0.89716153
C 0.84070099 -0.02619990 -1.02106419
N -0.04313206 -0.68585215 -1.65253063
H 1.26384614 1.55224093 1.70657221
H 1.84749872 0.21259052 -1.37950113
H 0.29309790 -0.94059261 -2.58080057
H -1.58218387 -1.39804227 1.48108071
