11

N 2.1284873 -0.74982923 -2.0898936
C -0.066832 -0.82531106 -0.6588707
C -1.2027664 1.4518343 0.9813787
C 0.007141804 0.12354808 0.52884156
C 1.1539314 -0.7936406 -1.4702344
O -1.1911246 0.06968627 1.2561249
H -0.9318538 -0.559591 -1.2733637
H 0.8913787 0.035536956 1.1655338
H 0.0016293515 1.1867088 0.044824455
H -0.5640169 1.9007596 1.7903249
H -0.22597505 -1.8397021 -0.27466607
