11

N -2.082563 2.3407393 0.3581992
C 1.3465337 -2.193491 -0.109037995
C 0.02640636 0.7928157 0.53386843
C 0.057164334 -0.20249969 -0.62051207
C -1.1485372 1.66501 0.44821018
O 1.2822508 -0.9638324 -0.51709056
H 0.93517953 1.4054093 0.5139405
H 0.006398853 0.2578158 1.4902819
H 0.09072511 0.30657986 -1.5862052
H 0.28065658 -2.5137837 0.076701015
H -0.794215 -0.89476293 -0.58835524
