9

O 1.4877771 -0.60770273 -0.29304558
C 1.0465875 0.1370632 0.6083172
N -1.1210895 -0.458076 -0.16898854
C -0.32762438 0.3859975 0.7391389
C -0.5171523 -0.077352785 -1.2438031
O -0.29000336 0.3319333 -2.2968476
H -1.1521865 -1.4647983 0.002342559
H -0.8565905 1.1055962 1.3475732
H 1.7302818 0.64733964 1.3053133
