9

O -0.59496117 -1.6973321 1.6296691
C -0.47955355 0.40253198 -1.3185395
N 0.18419269 0.54283 1.1251727
C 0.36280718 -0.12951073 -0.19779773
C -0.18447712 -0.7443383 1.0433027
O -1.2954103 1.276078 -1.1884521
H 0.9379998 0.9062858 1.6896819
H -0.28798625 -0.08574817 -2.2968872
H 1.3573889 -0.47079623 -0.48614958
