10

O 0.09490505 -0.7330065 -2.2983782
C 0.012633683 -0.4864739 -1.1058774
C -0.31422237 -1.1067152 0.09684841
N -0.09552363 0.10571547 0.9341738
C 0.2833148 0.8477207 -0.33003667
H -0.63595086 -2.0585268 0.49170962
H -0.40019482 1.6776314 -0.52264506
H 1.3157227 1.1992862 -0.2842729
H -0.92017436 0.49359205 1.3963186
H 0.6594898 0.060776554 1.62216
