9

N 1.70581657 -0.24091758 -0.30441633
C 0.37756835 -0.05388012 -0.29941762
N -0.30044157 0.02173743 0.79689952
C -1.66942698 0.21322901 0.61659039
O -2.46262932 0.30130804 1.52205282
H -0.07484237 0.02531159 -1.29583220
H -2.00735340 0.28213809 -0.44712830
H 2.23383063 -0.25507225 -1.16137746
H 2.19747835 -0.29385424 0.57262897
