9

N 1.2672713 -0.15411437 -1.562209
C 0.22024049 -0.021800712 -0.8626592
N 0.29317385 -0.037972916 0.5219416
C -0.78576535 0.09176187 1.3646787
O -0.7106767 0.07455131 2.5681312
H 1.0480852 -0.12218152 -2.551444
H -0.80174613 0.11161736 -1.2351384
H 1.209616 -0.1563582 0.9377289
H -1.7401984 0.21449716 0.81897
