9

N 1.1963552 -1.2803634 -0.23506743
C -1.2236283 1.1332898 -0.1488267
N -0.33926496 0.122673206 -0.4534312
C 0.5591054 -0.3532375 0.41186246
O -2.0460951 1.59337 -0.9025651
H 0.7055284 -0.014973488 1.4355458
H 0.31779322 -0.8629438 -1.164007
H 1.9358327 -1.8401923 0.16250151
H -1.1056265 1.5023777 0.89398783
