10

N -0.31207405 -0.55396678 1.94538247
C 0.54787141 -0.51221968 -1.41435130
C -0.11321470 -0.28768179 0.74012058
C -0.23656783 1.06437618 0.06069501
C 0.51616746 1.00488339 -1.19713676
O 0.77766831 -1.08896275 -2.43301897
O 0.28793671 -1.18671684 -0.22911793
H -1.26880543 1.16677623 -0.33209913
H -0.13794372 -1.53555831 2.15257596
H -0.06103818 1.92907068 0.70694997
