10

C 0.70378244 -0.38591405 0.71519356
C 0.26702975 0.89890371 0.12903676
N 0.75589473 2.03182380 0.41936806
C -0.94603196 -0.62612306 -0.79882905
N -0.77944396 0.64888838 -0.81487901
C -0.04686704 -1.33290562 0.14102823
H 1.48518404 -0.47609898 1.45750972
H 0.27795916 2.75443319 -0.12077319
H -1.68611705 -1.10954928 -1.42831145
H -0.03139000 -2.40345846 0.30065648
