10

C -1.3788773 -0.14228116 0.059898634
C 0.6084441 0.2770076 -0.67010885
N 1.5589523 0.6068893 -1.441148
C 0.7710915 -0.16894561 0.72980577
N -0.78309953 0.26403365 -1.0048175
C -0.45991018 -0.42976108 1.1842765
H 1.1789112 0.8771124 -2.3493812
H -2.457631 -0.25383082 0.098912165
H -0.7642644 -0.7804908 2.1621115
H 1.7263834 -0.24973357 1.2304511
