10

C -0.452763 -0.1644009 -1.1417451
C 0.58968455 0.20521507 1.371352
N -0.3884493 0.09306702 2.0805943
C 0.8902093 0.08763849 -0.8260474
N 1.4306806 0.27253243 0.39814734
C -1.4117886 -0.24751537 -0.1421281
H 1.6293644 0.15251271 -1.6251507
H 0.77756613 0.3436996 2.6390252
H -2.4147294 -0.46256953 -0.5446998
H -0.649775 -0.28017956 -2.2093475
