11

N 1.20689102 -1.00412355 -0.89665115
C 0.22143837 -0.35694500 -0.27653160
C -1.79827797 0.22035405 0.49335867
C -1.09822627 1.20399717 1.01065043
C 0.32331401 0.89646445 0.54856395
O -0.96118330 -0.79252761 -0.33793334
H 1.00976483 -1.83129129 -1.44325987
H 2.14584380 -0.64286621 -0.88180826
H -2.82136538 -0.11311507 0.45909451
H 0.75960079 1.69936301 -0.06001219
H 1.01220004 0.72069018 1.38452864
