11

N 1.1403756 -0.3719633 -1.3527824
C -1.1498672 0.6211997 1.4032251
C -1.2014395 -0.68451715 1.2703313
C 0.27735525 -0.23534061 -0.34727985
C -0.14235085 1.0375053 0.33529368
O -0.287169 -1.2498562 0.14685261
H 0.74432486 1.5276761 0.7570001
H -1.7102455 -1.5229346 1.7144666
H 1.3269777 -1.2848 -1.7448986
H 1.5666907 0.4356299 -1.7751663
H -0.5646518 1.727401 -0.4070425
