11

O -2.1527905 1.0607845 -0.922147
C -1.312799 0.38324615 -0.37003297
C -0.02415183 0.80691546 0.41864863
N 0.29215404 -0.6343078 0.5252337
C 1.1851938 0.2585995 -0.24446929
C -0.99402314 -0.98771125 -0.14729035
H 0.60241115 -1.0412235 1.4012867
H -0.99143314 -1.8175514 -0.84481966
H 2.1549256 0.455202 0.21056645
H 0.06759668 1.4537262 1.286544
H 1.1729164 0.062320296 -1.3135201
