11

C -1.1494951 0.14478157 0.053348064
N 0.9587244 -1.1405443 0.7360373
C 0.37402287 0.89134216 -0.64256173
C 0.21852426 -0.5134378 -0.32193634
N 0.48923436 2.0803514 -0.8598358
H -1.2991923 0.1424253 1.1347991
H -1.9887214 -0.26025945 -0.5124596
H -0.6600091 1.6743482 -0.39443165
H 1.9156471 -1.316948 0.4531697
H 0.1624711 -1.1542504 -1.2024772
H 0.9787937 -0.54780865 1.5563481
