11

C -1.1455746 -0.31135598 0.7056256
N -0.05851015 0.65851194 0.63601065
C 1.1048937 0.18313983 -0.08098361
C 0.8354507 -0.17048419 -1.4982543
N 0.5564578 -0.41791472 -2.591603
H -1.5173877 -0.63638437 -0.27762392
H -1.9736332 0.1287774 1.2682066
H -0.8029107 -1.1964175 1.2540337
H -0.38857707 1.5201375 0.21530612
H 1.88837 0.9459984 -0.05746141
H 1.5014212 -0.70400834 0.4267436
