9

O 1.4749227 -0.08155429 1.6604414
C -0.2949058 0.2767757 -0.57160336
C -0.36251503 -0.7277126 0.27337733
C -0.24245681 1.2631304 -1.4156165
C 0.58042854 -0.8571087 1.4086933
H 0.3633054 1.1961261 -2.3150375
H 0.4029442 -1.7528545 2.0399067
H -1.1232753 -1.4964476 0.15684527
H -0.7984478 2.1796455 -1.2370068
