9

O 2.503424 -0.30798835 -0.04946487
C 1.4275517 0.21972671 -0.13320671
C 0.21026263 -0.23369652 0.6641857
C -1.0260205 -0.09313827 -0.10523929
C -2.0129576 0.03894268 -0.7772137
H 1.2540581 1.096938 -0.78842837
H 0.16381681 0.39353842 1.5632137
H 0.37392685 -1.2645842 0.99556
H -2.8940618 0.15026146 -1.3694067
