13

C -1.1927294 0.2833173 0.2740029
C 1.2696098 -0.02765929 1.1852639
N 0.7023713 -0.056234304 -1.1364367
O -1.9663461 -0.6950809 -0.36966482
C 0.2913497 0.062393054 0.061179243
O -0.16015148 0.0034257423 -2.2409089
H 2.2907932 -0.14092723 0.81577027
H 1.0698438 -0.2952215 -2.187569
H -1.6891068 -0.65324205 -1.2982846
H 1.0172865 -0.88423586 1.8206265
H -1.4082236 0.23325334 1.345463
H 1.210843 0.8716652 1.8110934
H -1.4355401 1.2985466 -0.08053524
