10

O 1.35146387 1.77507803 0.80174668
C -0.30383357 -0.52913152 -1.00639004
N -0.11661290 0.05266461 1.23321895
C -0.78314293 -0.90132334 0.36769372
C 0.56771498 0.76353856 0.42658682
N 0.50144086 0.46651759 -0.96766224
H -0.57912256 -1.01531808 -1.93755677
H -0.51175325 -1.93002174 0.63040938
H -1.87358906 -0.82154201 0.45461595
H 1.74743486 2.13953791 -0.00266256
