10

O 1.2095411 1.0014032 1.7760508
C -0.9904162 -0.71906537 -0.25083062
N 0.8890771 0.583778 -0.5236382
C 0.4774888 0.40946576 0.83163095
C 0.014888586 -0.09076251 -1.17331
N -0.5564064 -0.29752105 1.0672836
H -0.9950106 -1.8116966 -0.33466476
H 0.034523766 -0.17324893 -2.2559195
H -2.0096498 -0.37349123 -0.46233636
H 1.9259638 1.4711391 1.3257343
