10

O 1.245359 0.5073956 -1.7501502
C 0.47377807 0.08346495 -0.73539156
N -0.06302053 -1.0938178 -0.6072395
C -0.75205743 -1.022562 0.5912456
C -0.61501944 0.20355232 1.1634593
N 0.19200704 0.9236443 0.28559342
H 1.3118777 -0.2408687 -2.358749
H -1.307751 -1.8725195 0.96379644
H -0.99344087 0.63633955 2.0765333
H 0.50826776 1.8753713 0.3709021
