11

N 0.19201763 0.76322776 -1.4196967
C -0.98820233 -1.132496 0.31068447
O -2.1760335 -1.320605 0.2759005
C -0.36521247 0.041269 1.0492104
C 1.1572529 0.63949394 -0.61377054
O 0.98607737 0.2553319 0.66201437
H -0.31910977 -0.19847432 2.1167147
H 2.2207165 0.8087267 -0.8038882
H -0.25340247 -1.8379189 -0.13393314
H 0.52075404 1.0459194 -2.3373144
H -0.9748577 0.9355256 0.89407855
