11

N -0.41306975 -0.5512834 -1.4635915
C 0.19514349 -1.2956713 -0.642705
O 0.7716844 -0.8178746 0.47316313
C 0.69836 0.5927735 0.6315224
C -0.73189414 1.080989 0.80117136
O -1.0287361 2.2438047 0.7084712
H -0.7875841 -1.0937154 -2.235995
H 0.34308746 -2.377279 -0.6917447
H 1.1591076 1.1163068 -0.21096772
H 1.2580203 0.80689937 1.5473439
H -1.464119 0.2950505 1.083332
