11

N -1.4678497 1.413131 1.0100522
C 0.061941892 0.15067169 -1.1746198
C -0.63116586 0.50628513 0.9390046
N -0.7341835 1.1001455 -1.488093
N 1.0774525 -1.3164175 0.6072741
C 0.20796138 -0.27780154 0.20863603
H -0.9602948 0.6631053 2.0729558
H -0.7313783 1.2888374 -2.4861832
H 0.61877203 -2.1041431 1.0424913
H 0.6842444 -0.4096023 -1.8819404
H 1.8744998 -1.0142117 1.1504225
