11

N -1.5600203 -0.10067307 0.7414452
C -0.0120731415 -0.7130616 -1.0861344
C -0.24916169 -0.011976958 0.18547814
N 1.1035175 -0.67787915 -1.6948974
N 1.5767385 1.2919676 1.3676852
C 0.7081031 0.70595783 0.7434472
H -1.6691247 -0.95077986 1.287746
H 1.0549835 -1.2487534 -2.5365844
H -1.7882849 0.6918498 1.3259737
H -0.90506905 -1.2486306 -1.436654
H 1.7403911 2.2619796 1.1024948
