10

O -1.6843405 -0.5965164 -1.5294834
C -0.8043798 -0.26771766 -0.779585
C -0.3766953 -0.61938083 0.6601292
C 0.770374 0.39986187 0.44496816
N 0.24168222 0.610099 -0.89897275
H -1.1092817 -0.34976292 1.4228592
H -0.06562282 -1.6576555 0.7897534
H 0.72635806 1.2879605 1.082917
H 1.7791356 -0.022002196 0.46539772
H 0.52277017 1.2151138 -1.6579838
