11

C 0.29750514 0.14858867 0.49567375
N -0.73288864 -0.8203465 0.3820636
C 0.9105647 0.5544552 1.6017337
O -1.3705096 -0.49810383 -0.8541436
C -0.25923273 -0.1512189 -1.6329732
O 0.59311485 0.57416135 -0.75491965
H 0.27215034 -1.0415956 -1.9952013
H -1.4566588 -0.7033836 1.0901419
H 0.588225 0.19657043 2.5709374
H -0.58576906 0.49532822 -2.4456124
H 1.7434986 1.2455442 1.5423002
