12

O -1.9055667 -0.060542412 -1.2387105
C 0.8149407 0.57905227 1.1848761
C -0.9223416 0.6678563 -0.55836755
O 0.27024207 -1.3764565 -0.27714583
C -0.18773088 -0.24490434 0.44257423
O 2.0168715 0.068114825 0.9345863
H 1.2359941 -1.3419583 -0.27979672
H -0.17528567 1.0903699 -1.2526177
H -1.4792511 -0.8799081 -1.525028
H -0.9252173 -0.5830166 1.1853781
H 2.6681378 0.5906983 1.4149011
H -1.4107928 1.4906948 -0.030649731
