12

O -1.7472286 0.52709275 -1.222361
C 0.976297 -0.7292175 0.5239328
C -0.25652534 0.17933942 0.5756197
O 1.5804372 -0.63016754 -0.7424588
C -1.3115134 -0.34875488 -0.3575706
O 0.13312338 1.4803767 0.21742849
H -0.68944746 0.15646876 1.5888183
H 1.6599373 -0.43728358 1.3334924
H -0.5068863 1.7819055 -0.44907176
H -2.2166305 -0.524628 -1.2343597
H 1.6956342 0.31574494 -0.9049134
H 0.68280256 -1.7708765 0.67144364
