12

C -1.1217042 -1.0158206 -1.6984391
N -0.99898666 -0.5869082 -0.32062495
C 0.05880217 0.021919096 0.0101113105
N 0.24465753 0.4681277 1.3101511
C 1.3535779 1.1504929 1.7456295
O 1.5062419 1.5430267 2.87717
H -2.0007741 -0.5379086 -2.1449482
H -0.24369732 -0.7891973 -2.320716
H -1.3003731 -2.0955956 -1.7231853
H 0.8946823 0.24970001 -0.6635655
H -0.49372527 0.28656498 1.9819539
H 2.1012988 1.3055992 0.9464631
