11

O -0.029047573 0.8877361 0.94700783
C 0.787563 -0.2106781 1.3894281
N 0.2637341 -1.0742439 0.33248445
C -0.4232711 0.09080219 -0.13250546
C -0.7614466 0.59599423 -1.4551821
O -1.7380515 0.040866185 -0.53557557
H -0.8571161 1.669198 -1.6127636
H 1.8513134 0.03611266 1.3077387
H -0.57141346 -0.007812375 -2.3415642
H 0.54124254 -0.542732 2.4020813
H 0.93649346 -1.485243 -0.30114976
