11

O 1.203406 0.63547736 -1.9613625
C 0.16655844 0.6842832 -1.3558321
C 0.040903687 0.16280015 0.053418607
C 0.8661828 -1.0046116 0.44045112
O 1.1991994 0.28853977 0.87063366
C -1.2547274 0.3655741 0.7752221
O -2.2880816 0.6015684 0.2017648
H -0.7656109 1.0985031 -1.7843639
H 0.4970893 -1.6831623 1.2110028
H 1.5144706 -1.422267 -0.32889932
H -1.17939 0.27329493 1.8779646
