10

N 0.2294847 1.7676243 0.39385438
C -0.20074163 0.48060137 0.16312717
N -1.4004322 0.049703225 0.35745823
O -1.3399248 -1.3353232 0.10261323
C -0.08244219 -1.698177 -0.25882444
O 0.27850232 -2.810543 -0.51948136
N 0.64431804 -0.51708144 -0.25204378
H 0.7538959 2.1757236 -0.36722738
H -0.5304849 2.366898 0.6871126
H 1.6478248 -0.47942543 -0.30658877
