10

N -0.20254406 -1.0003574 1.7545979
C 0.21802314 0.5622533 -1.1899824
N 0.44931382 1.0959636 0.9072271
O 0.2636218 0.7697208 -2.4932287
C 0.020624595 -0.12862487 0.7245172
O 0.59113866 1.5647988 -0.4266067
N -0.15346642 -0.52184486 -0.5778635
H -0.8885559 -1.7103609 1.5510323
H -0.2830045 -0.57300985 2.6622171
H -0.015151215 -0.058538817 -2.9119105
