10

N -1.34088643 0.03160555 0.65353261
C -0.00643291 -1.23155997 -0.51277627
N 0.03228000 1.94159189 0.59121225
O -1.18010357 -1.25750671 0.07788359
C -0.23053054 0.63111866 0.30073223
O 0.36627951 -2.34092995 -1.12429621
N 0.65647515 -0.11724348 -0.43022614
H 1.22961089 -2.15619109 -1.52373748
H -0.54114903 2.33861629 1.31676252
H 1.01445697 2.16049924 0.65091278
