10

O 1.03248666 -1.85414861 0.88741060
C 0.44054079 -0.81475462 0.72842628
C -0.07445307 1.61038746 -1.35904397
O -0.78804773 0.82719225 -0.60274469
C -0.34247995 -0.53328093 -0.53678594
O 0.36292011 0.17739809 1.62810001
H 0.89070652 -0.09406642 2.39463387
H -1.23853558 -1.15754699 -0.54839325
H 0.29160209 -0.75781256 -1.39604306
H -0.57474011 2.59663245 -1.19555982
