10

O -1.9324754 0.21715929 -0.39844266
C -0.7397878 -0.10546986 0.13825081
C 1.3410288 0.6788999 0.816298
O 0.32192254 -0.90637684 -1.9061202
C 0.3601992 -0.5667558 -0.76238763
O 1.4854946 -0.42050394 0.006999517
H -0.86739147 -0.75287014 1.0068467
H 1.7484093 0.385119 1.8027178
H -1.7922442 0.53745687 -1.3015311
H 0.07484452 0.9333415 0.5973689
