12

N -0.94351354 -0.61773954 0.68375752
C 1.36069697 -0.00539483 0.63793943
C 0.66256696 0.54690068 -0.61159443
O 1.04990829 -0.23487465 -1.72862893
C -0.84771728 0.45769507 -0.31032162
N 0.39199721 -0.60041007 1.24942419
H 1.03767783 -1.16152693 -1.45779637
H -1.41136648 0.20144254 -1.20856265
H -1.57408525 -0.35764190 1.43945335
H 0.50899023 -1.20267192 2.05393660
H 0.97592310 1.56667559 -0.84639388
H -1.21107787 1.40754592 0.09878695
