12

N 0.8910909 -0.91582775 0.6651551
C 1.4103335 -0.35742107 -0.37643266
C 0.27531713 0.5595253 -0.85045576
O -0.3066705 -0.0053706393 -2.0128477
C -0.7081327 0.64075035 0.33525515
N -0.46267772 -0.6002128 1.0793601
H -0.4173481 -0.4197386 2.0802207
H 1.3064555 -1.6921755 1.1635559
H -0.48982605 1.5207398 0.9513543
H -1.7406266 0.6805562 -0.014851354
H -0.3940932 -0.9556453 -1.8661519
H 0.63617766 1.5448202 -1.1541618
