12

C 0.48132908 0.7132789 2.2132342
N 0.012923241 -0.04830347 -1.2977031
C -0.05378727 -0.057176452 0.094767064
N 0.59792817 0.7827387 0.76900876
C -0.65053725 -0.90955275 -2.0780754
O -0.48921308 -0.7896299 -3.3713703
H 0.09361106 1.6663498 2.5860476
H -1.1978117 -1.6506693 -2.8755784
H -0.7068899 -0.84081846 0.4934389
H 1.4802945 0.5768847 2.6391194
H -0.1695439 -0.099709645 2.567256
H 0.60169715 0.6566079 -1.7401447
