12

C -0.16936517 -2.4161968 -0.05388225
N 0.26741084 -1.1348034 0.45404842
C -0.113228306 2.2686124 -0.3372007
N 0.28376594 1.1624739 0.29880244
C -0.107563965 -0.09867358 -0.15669438
O 0.40598708 3.3105445 0.339861
H -0.7206805 -2.9427223 0.7324986
H 0.87560135 1.1779646 1.1287694
H -0.73635906 -0.055689905 -1.0479617
H -0.8050429 -2.3517501 -0.95047927
H 0.10933105 4.1041737 -0.11871305
H 0.71014357 -3.023933 -0.28904852
