12

C -1.1218679 -1.0133084 -1.7003887
N -0.9996403 -0.5867382 -0.3217244
C 0.05581484 0.020839538 0.008997133
N 0.244899 0.46956438 1.3109871
C 1.3525155 1.148393 1.7476964
O 1.5063643 1.5423185 2.8791478
H -2.000679 -0.5360193 -2.146575
H -0.2448624 -0.7857826 -2.3233316
H -1.2976618 -2.0943797 -1.7266166
H 0.89507055 0.24875772 -0.66148883
H -0.4911613 0.28654647 1.9849116
H 2.1012084 1.2998089 0.948385
