12

C -1.33394651 -1.69939700 -1.09646311
N -0.30925936 -1.19397836 -0.21028923
C -0.14699109 0.05371417 -0.14617805
N 0.82653922 0.59037296 0.69960294
C 1.00316316 1.91245162 0.78058934
O 1.98755063 2.11617581 1.67674637
H -0.70157900 0.81512791 -0.69778449
H -0.87330438 -2.37585010 -1.82337583
H -1.88417240 -0.91642190 -1.64082258
H 2.10390707 3.07066637 1.73633838
H -2.04758973 -2.29294566 -0.51509758
H 1.37568229 -0.07991551 1.23673376
