10

O -0.15878937 1.45766471 -1.60496037
C 0.12490887 0.26846564 -1.01493501
C -0.09849185 0.10156288 0.29253270
O 0.01530745 -1.31064827 2.15554745
C 0.21559136 -1.16343317 0.96206172
O -0.61800026 1.07591435 1.07782274
H 0.53722992 -0.53278594 -1.62074429
H -0.66880553 0.68153305 1.96605794
H 0.01025850 1.39121457 -2.54827455
H 0.64079103 -1.96948792 0.33489138
