10

O -1.1806879 0.22502568 -1.8114187
C 1.0032209 -0.23277515 1.1247145
C -0.11125696 -0.11049815 -1.045553
O -1.2161975 0.63293445 0.90635294
C -0.1424803 0.10055272 0.27418897
O 0.9733586 -0.034388054 2.327189
H -0.96141106 0.6703888 1.8448414
H -1.0144247 -0.03871833 -2.7200606
H 1.8883219 -0.6682849 0.623926
H 0.7615569 -0.544237 -1.5241804
