10

O -1.77993316 0.16456028 0.88265941
C 0.80234340 -0.88014842 -0.12780149
C -0.80976506 0.86994397 0.73496077
C 0.28953797 0.52149274 -0.21128416
N -0.01018964 -0.45931298 -1.24681081
H -0.96821124 -0.77595310 -1.10992937
H 0.35066030 -1.51574330 0.63186657
H -0.68667144 1.81758187 1.29586660
H 1.84934753 -1.06802981 -0.34976110
H 0.96288107 1.32560855 -0.49976696
