10

O -1.6840779 -0.5967181 -1.5294241
C -0.8051252 -0.26869982 -0.777825
C -0.3753234 -0.61888224 0.6604185
C 0.770741 0.40053436 0.44508132
N 0.24189089 0.6090211 -0.90005386
H -1.1087843 -0.35200426 1.4240881
H -0.06509435 -1.6573229 0.78847843
H 0.725637 1.2890619 1.0803177
H 1.779036 -0.02044485 0.46581057
H 0.5211 1.2154546 -1.6568922
