10

O 0.38793772 2.0933607 -0.9601488
C 0.3254855 1.0521286 -0.3120089
C 0.8264193 -0.32539752 -0.45150045
C -0.36289924 -0.9475269 0.19106391
N -1.0695021 0.32759994 0.19534406
H -0.20144868 -1.4875941 1.1309476
H 1.5634422 -0.70228857 -1.1624601
H -1.3877833 0.6276978 1.1170868
H -0.83425564 -1.634046 -0.5310489
H 0.75260437 0.99606603 0.78272474
