10

O -1.8157701 -0.07904448 0.81918293
C 0.8807174 -0.79117036 -0.18203214
C 0.2491993 0.5632196 -0.14529738
C -0.90731806 0.7172593 0.7842209
N 0.071715474 -0.32630652 -1.2860755
H 0.85809505 1.4469514 -0.32272223
H -0.88702965 1.6083851 1.442452
H 0.46200466 -1.5382102 0.490058
H -0.8586116 -0.7352213 -1.2221763
H 1.9469976 -0.8658624 -0.37761018
