12

C -0.34953448 -1.10474 0.9801643
C -0.25880584 -0.62906677 -0.46777785
N -0.26469678 0.82026714 -0.5856197
C 0.87665313 1.5505793 -0.49445322
O 1.993699 1.0822663 -0.40661767
H -0.34720755 -2.1978116 1.0261369
H -1.2690307 -0.7446037 1.456148
H 0.5069484 -0.7288491 1.5489962
H -1.0937957 -1.0172936 -1.0606132
H 0.6708718 -0.98184717 -0.923818
H -1.1456054 1.3114789 -0.5426792
H 0.6805042 2.6396205 -0.52986693
