12

C -0.6115517 -0.45908907 -0.22854102
C -0.5135462 0.2783611 1.9587451
N 0.037766796 0.2155017 0.61610955
C 0.9739468 0.043977533 -1.8680183
O -0.24055286 -0.60745126 -1.5062243
H -1.543987 -1.0047821 -0.043437935
H 1.8069718 -0.3440804 -1.2730849
H -1.4427525 -0.29633182 2.0888512
H 0.23152606 -0.097065486 2.6677284
H 1.115917 -0.17542325 -2.9278207
H 0.89569795 1.1223114 -1.7000579
H -0.7094363 1.3240716 2.215751
