15

N 0.64655349 0.11657562 0.87940761
C -0.96262936 -1.17021257 -0.09923848
O -0.61966465 -0.13613000 -1.01148563
N -0.35516355 2.03586385 0.02437668
C 0.29419760 -1.29344913 0.75570425
C 0.23329753 0.79366024 -0.34228745
O 1.23231428 1.15304640 -1.24149370
H 0.10143800 -1.74188436 1.73383354
H -1.20911953 -2.06800424 -0.67083008
H 1.05795210 -1.89469471 0.23622102
H 1.55649275 0.34599773 -1.64655075
H 1.62312487 0.30843862 1.06938603
H -1.82609475 -0.88103598 0.51459628
H -0.60016556 2.56593501 -0.80148806
H -1.17253341 1.86589302 0.59984871
