10

O 1.752858 -1.1311383 1.0112951
C 0.80402285 -0.6116509 0.5009671
C 0.50531423 -0.084102966 -0.93157643
C -0.7210244 0.58387613 -0.307943
O -1.5214353 -0.4657909 0.19778483
C -0.47082233 0.025841553 1.0352573
H 0.2914174 -0.82057005 -1.7075362
H 1.2935848 0.5997379 -1.2624694
H -1.1985756 1.5222238 -0.559045
H -0.73534 0.38157362 2.0232651
