11

N -0.44825095 1.4265893 -0.1341375
C -0.98941654 0.45569006 -1.0000106
N 1.2931647 -1.3129709 1.0407144
N 0.38046432 0.83094037 0.73186064
C 0.4917003 -0.42521194 0.34597826
C -0.26806378 -0.7905531 -0.8364251
H 1.5636798 -2.1124852 0.4903986
H -1.7145994 -0.24599807 -0.43109986
H 2.0621972 -0.8893201 1.5393326
H -1.4801439 0.7823419 -1.9141619
H -0.890732 2.2809782 0.16755047
