11

O -1.500939 -1.0476362 0.3804542
C -0.16566561 -0.7697556 0.06648721
C 0.027582578 0.2355451 -1.0941335
N 0.76084554 1.077878 -0.14959997
C 0.50685376 0.3029088 0.94706076
O 0.6849253 0.442366 2.1319854
H -1.5634947 -1.1290424 1.3420031
H 0.43653008 -1.6813871 -0.038438268
H 0.6272503 -0.1138726 -1.9367005
H -0.9203448 0.6595167 -1.4347795
H 1.1064569 2.023479 -0.21433902
