10

O 1.2545431 -1.3862358 0.9888083
C 0.36095658 -0.94868773 0.014964991
C -0.01879602 0.49810728 0.22167009
O 0.41984865 1.1481451 1.1455218
C -0.9818601 1.1502396 -0.7592431
O -1.4538332 0.557145 -1.693567
H 1.4002737 -0.64112383 1.5893396
H 0.7847739 -1.0463883 -0.99690074
H -0.56536794 -1.543315 0.017135222
H -1.2005383 2.2121136 -0.5277291
