10

O 0.5384461 -0.12222252 0.97802985
C 0.7025314 -0.1446958 -0.42939976
C -0.4393706 -0.8708533 -1.1044697
O -1.3824761 -1.3382599 -0.52026594
C -0.29481065 0.83023727 1.4379889
O -0.82482415 1.6757698 0.7705125
H 1.6383977 -0.6781948 -0.6228738
H -0.38396475 0.7223091 2.5281172
H 0.7790009 0.87173355 -0.8307003
H -0.33292997 -0.9458232 -2.2069385
