9

N 1.411261 -0.6580922 -0.14256282
C 0.16353957 -0.9127951 -0.2729798
C -0.28462398 1.4167485 0.27628663
C -0.79599875 0.13532335 -0.19999865
N 0.69171584 2.1199052 0.27605358
H -1.0374933 1.2913154 1.1452612
H -1.8691665 -0.0021552492 -0.27132252
H -0.2514523 -1.9091653 -0.4678193
H 1.9722185 -1.4810847 -0.34291843
