10

N -1.49832211 -0.23768534 0.06411891
C -0.15002412 -0.53589738 0.73307084
C -0.57929242 0.61433295 -0.03197459
O 0.80671661 -1.66253226 -1.13499910
C 0.70722634 -1.55917768 0.06516062
N -0.25883423 1.83496712 -0.49467693
H -0.11935501 -0.51000811 1.82144269
H 1.25885987 -2.23489433 0.75142038
H -0.88875566 2.25462924 -1.16144409
H 0.72178089 2.03626574 -0.61211850
