10

N -1.415274 0.28911933 -1.2618297
C 0.18155117 0.20376301 0.87898004
C 1.5864998 -0.22131926 0.60785383
O 1.8816165 -1.0566937 -0.21435022
C -0.8332629 -0.08697481 -0.11006977
N -0.8814409 -0.90224355 0.84533614
H -2.065149 -0.35785282 -1.6820502
H 0.04595284 1.0005754 1.6089576
H -0.8611445 0.845881 -1.8933965
H 2.3606513 0.28574553 1.2205689
