10

N -0.6547595 -1.2188976 1.1911225
C -0.18065903 -0.30537733 0.2572238
C -0.7828446 0.73181003 -0.37633166
O 0.14109923 1.2670667 -1.2492964
C 1.2316395 0.5170015 -1.0827222
N 1.1179476 -0.4271473 -0.21113147
H -1.3178864 -0.8405007 1.8521456
H 0.10494066 -1.6877974 1.6629379
H -1.7556592 1.1946434 -0.35963374
H 2.0961819 0.76919866 -1.6843141
