11

N -0.4749453 0.17073268 1.3590187
C 0.28647077 0.33713582 -0.8769223
C 0.30589232 1.6367164 -0.51110363
C -0.1803495 -0.4426478 0.26738343
N -0.31283715 -1.8059924 0.040037923
N 0.12424479 2.514174 0.34503093
H 0.5802876 2.6635385 -1.0279785
H 0.25706407 -2.1848526 -0.6999365
H -0.32211035 -2.3854563 0.8671212
H 0.5277635 -0.04702414 -1.854904
H -0.7914807 -0.45632422 2.092253
