11

O -0.83701986 -1.2463925 1.3870305
C 1.0823572 -0.42759377 0.22314093
C -0.45556635 0.9936232 -0.54423475
N 0.93356514 0.71123546 -0.5237489
C -0.28513923 -1.0218679 0.20198488
O 2.0752666 -0.9026348 0.7366792
H -1.5813142 -1.8562473 1.281963
H 1.6771103 1.2016898 -0.9957506
H -0.91053563 -0.33020666 -0.6204111
H -0.84819055 1.3816482 -1.4876624
H -0.8505335 1.4967462 0.3410093
