11

O -2.32444906 0.12332166 0.32099243
C -0.48712387 -1.10485020 1.02768269
C 1.04480497 0.35213100 -1.00075768
N -0.39371487 0.47704370 -0.84901310
C -1.12814982 -0.05863569 0.15306754
O -0.18001288 -0.54453681 2.17344607
H 0.11953491 -1.24534483 2.77089753
H 1.37660047 -0.53865667 -0.45859123
H 1.29774424 0.22131880 -2.05539942
H -0.90159259 1.09078995 -1.47241554
H 1.57635859 1.22741905 -0.60990934
