11

O -1.5044312 -1.0401399 0.37953064
C -0.16737328 -0.7710569 0.06685853
C 0.028745126 0.23499809 -1.0920075
N 0.7603957 1.0780094 -0.14739716
C 0.50735694 0.3022435 0.9480077
O 0.68151784 0.4400691 2.1321924
H -1.5617783 -1.1295552 1.3397808
H 0.433147 -1.6839875 -0.038114287
H 0.6277619 -0.11135118 -1.936914
H -0.91900814 0.66020286 -1.4318525
H 1.1136665 2.0205677 -0.22008467
