9

O 0.754132 0.24874325 -2.078014
C 0.26489267 0.111424625 -0.8370655
N 0.9894783 -0.31151512 0.17889246
N 0.07965769 -0.28162917 1.1817478
C -1.1060545 0.14507605 0.7197138
N -1.0289222 0.40750843 -0.5682245
H 1.6859401 -0.0068898182 -2.0505126
H 0.3458976 -0.56076765 2.111896
H -1.9850215 0.24804933 1.3415663
