10

C 0.9567267 -0.23462816 0.35616288
O -1.0596869 -0.56921095 1.6651323
C -0.42508343 -0.18358833 0.71976817
O 1.4061228 0.72946274 -0.5800206
N -1.0978032 -0.13602564 -0.6600091
H -1.1008486 0.76640964 -1.1247576
H -0.03341112 -0.77753067 -0.74077487
H -1.9931618 -0.6123775 -0.67613584
H 1.677393 1.5171295 -0.09760771
H 1.6697525 -0.49964067 1.1382422
