10

C -1.1185049 0.3960618 0.15311502
O -0.70760584 0.3078579 1.487714
C -0.33934936 -0.0041698376 -0.87222886
O -0.36172488 -0.13151017 -2.077909
N 1.1244733 -0.5386674 -0.20707919
H 1.8827453 -0.009717271 -0.63001966
H 1.2431319 -1.5210822 -0.45521182
H -0.6738548 1.2093003 1.8362427
H -2.1386976 0.71222585 -0.045671523
H 1.089387 -0.420299 0.8110482
