10

O 0.95237446 2.0914066 -1.1640726
C 0.6710889 1.1142133 -0.5498659
O 1.129771 0.75466824 0.7048652
C 0.50062865 -0.53744024 0.5666085
C -0.96504176 -0.3682859 0.5083068
C -0.12213292 -0.14844602 -0.7428237
H 1.0791061 -1.4061499 0.8489249
H -1.5564748 -1.2797636 0.4784106
H -1.4275529 0.47334018 1.0178076
H -0.2617667 -0.6935425 -1.6681613
