17

C -2.5114846 0.89803123 -0.49810332
N 0.91522235 -0.2746224 0.042823385
C 1.9534496 -0.9898597 -0.66897607
O -0.30530304 0.057313945 -1.8639792
N -1.2364143 0.6193129 0.1404337
C -0.21402273 0.113395005 -0.6442339
C 1.0910118 -0.07387212 1.4685377
H 1.6767178 -1.0272251 -1.7220047
H -3.0352983 -0.008702005 -0.8301431
H 2.06149 -2.015647 -0.2890864
H -1.299228 0.24268183 1.0745382
H 2.1614375 0.009948185 1.6837186
H 2.9202626 -0.48069036 -0.5670992
H -2.33734 1.5203625 -1.3785613
H -3.1481493 1.4468526 0.19996014
H 0.61834323 0.8639187 1.7797887
H 0.68930554 -0.9011977 2.072387
