17

C -2.71202800 -0.08382113 -0.00024301
N -1.32432698 0.00073924 0.42207572
C -0.36018556 0.19953467 -0.55150139
O -0.65836900 0.46816864 -1.70829791
N 0.94275478 0.11651748 -0.11189440
C 1.30601681 -0.05229469 1.28216696
C 2.01033307 0.11869975 -1.08985683
H 1.35145798 -1.10749583 1.59031493
H -3.35578571 -0.06533102 0.88240843
H -2.92992771 -0.98541112 -0.58884437
H -1.06701777 -0.62274069 1.17268380
H 2.73099148 0.91962819 -0.88123089
H 2.29543559 0.38787833 1.44476473
H 0.59835933 0.48218348 1.92504981
H -2.94525252 0.78221803 -0.62346954
H 2.54943111 -0.83921338 -1.09190970
H 1.56811303 0.28074019 -2.07221638
