11

C -0.88718796 0.38608834 -1.93269289
C 0.01508309 -0.10819941 -0.90647406
C -0.12780271 0.38166195 0.50677057
N 0.21273627 0.96842270 -1.97509864
C 0.57700800 -0.43043112 1.56961950
O -0.78111992 1.37133507 0.75254466
H 0.23985100 -1.47105657 1.54297034
H -1.84855436 0.37509868 -2.43248528
H 0.56465910 -1.03654028 -1.05828748
H 0.37873374 -0.00170883 2.55274190
H 1.65659435 -0.43467063 1.38039156
