11

C -0.88061994 -0.79987323 -1.1901705
C -0.12909223 -0.06380089 -0.14020242
C -0.2633317 1.1345183 0.4700077
N 0.76152813 1.3042524 1.3958167
C 1.4470158 0.21968268 1.2974313
O 0.9819494 -0.6652051 0.3931602
H -1.2561787 -1.7550924 -0.81202453
H -1.732427 -0.19779578 -1.5170377
H -0.24710825 -1.004437 -2.0582213
H -1.0179876 1.8920019 0.31656933
H 2.3362527 -0.06425099 1.8446714
