12

N 0.9601068 -0.52234864 -1.5601391
C -0.467617 -0.31121567 0.9630362
N -1.0125875 0.703098 -0.99430174
C 0.6130522 0.6397547 1.2621688
C -1.5238409 0.21866322 0.087713316
C 0.30803788 0.24370031 -0.6571944
N 1.0973642 1.1286275 0.17074075
H 0.38761494 -1.150255 -2.1056669
H 1.8546567 -0.88458246 -1.2655183
H -0.61618537 -1.1927695 1.5780836
H 0.996916 0.9118176 2.24562
H -2.5975177 0.21550994 0.27545753
