12

N -1.5201539 -1.1023647 -1.3448262
C -0.6176386 -0.45173156 -0.551642
N -0.6922758 -0.6974569 0.7659135
C 0.21982734 -0.09046166 1.5151774
C 1.1944875 0.7543236 0.9955631
C 1.1560918 0.9358608 -0.38231534
N 0.26255345 0.34928325 -1.1694504
H -1.6493822 -0.7447141 -2.2789876
H -2.3207457 -1.4998817 -0.8813047
H 0.16391145 -0.2840161 2.5870447
H 1.9305743 1.2425333 1.6228949
H 1.8727504 1.5886259 -0.87806726
