10

O -0.42247024 0.96154743 1.984593
C 1.0793524 -0.599907 -0.021558812
C -0.87665844 0.5277201 0.9573859
O 1.2362571 -1.5619025 -0.7340278
C -0.03761254 0.38822588 -0.30812004
O -0.808347 -0.024690699 -1.3877095
H -1.9232378 0.17831282 0.8496023
H -0.39798003 -0.8434816 -1.7135
H 1.7063847 -0.38929334 0.86272657
H 0.44431213 1.3634689 -0.4893916
