10

O -0.12275819 -1.1792618 -1.0828577
C -0.06573733 -0.4802856 0.114799
C -1.3132894 0.37268808 0.3313719
O -1.4835297 1.0050554 1.3434556
C 1.1436541 0.44382656 0.14599833
O 1.9258661 0.4499132 -0.7712771
H 0.6734036 -0.9273345 -1.580785
H 0.022990111 -1.1518015 0.9848687
H -2.0228796 0.37552965 -0.5191685
H 1.2422802 1.0916705 1.0335948
