10

O 1.163337 -0.104884125 0.59221005
C 1.0018393 0.3557916 -0.74340343
C -1.0748472 -0.038945444 0.040178075
O -0.3419117 0.72935677 -0.88784105
C -0.054078966 -0.41537774 1.0988674
O -0.2254225 -0.9048926 2.1746047
H -1.8843662 0.56324446 0.46056837
H -1.4953532 -0.951326 -0.40510395
H 1.2735479 -0.4603416 -1.4261864
H 1.6372555 1.2273747 -0.90389407
