15

N -1.0527042 1.2324622 -1.2443285
C 0.43739507 -1.3890249 -0.2264409
O 0.52184933 2.0883927 0.084127955
N 0.81327206 -0.10327789 -0.80619866
C -0.085474364 0.8865939 -0.25085634
C -0.09779613 -0.99339825 1.1475004
O -0.6348189 0.31245318 0.9395389
H 0.7090353 -0.9595617 1.8935713
H 1.7641362 0.17275673 -0.5936788
H 1.2846056 -2.079689 -0.19651036
H 0.833609 2.0132565 0.9919377
H -1.5361325 0.4038341 -1.5603688
H -0.35299557 -1.8457111 -0.8321212
H -1.7092386 1.9055974 -0.8664968
H -0.89474237 -1.6446846 1.5203238
