15

N -0.4750599 -2.2386713 1.2968308
C -0.3192492 -0.92364293 0.9044518
O -0.80066526 0.0009911576 1.5494009
N 0.4165983 -0.76072985 -0.2400374
C 0.9338238 0.53903747 -0.6716315
C -0.13515227 1.5817844 -1.0163912
O -0.606731 2.3021908 0.086770035
H -1.1897207 -2.348079 2.0015001
H -0.47507325 -2.9529872 0.5862343
H 0.9709676 -1.555553 -0.52264464
H 1.530311 0.34074765 -1.5677825
H 1.5972155 0.97108805 0.090125136
H -0.94188905 1.0818609 -1.5756514
H 0.31843522 2.320673 -1.6875199
H -0.8238108 1.6412898 0.7663456
