9

O 0.65725327 -0.31929636 -2.0076995
C -0.18891077 -0.23411311 1.3396834
C -0.03897665 -0.87563705 3.7540913
C -0.26035172 0.42347592 -1.2446123
C -0.25544372 0.07033884 0.18256766
N -0.115428306 -0.5704309 2.6186085
H -1.2435336 0.21017972 -1.6740222
H 1.5366261 -0.21162018 -1.627775
H -0.09123445 1.507103 -1.3408417
