11

N -0.12898977 1.61475610 1.85464642
C 0.90139460 -0.38855121 -0.76940343
O 0.99556811 0.77885738 0.04257953
C -0.58050029 -0.73504408 -0.68553834
C -0.05222321 0.79621091 0.90116045
O -0.95017093 -0.17653331 0.57522197
H 1.53404746 -1.17647325 -0.34560123
H -0.78524435 -1.80733761 -0.66708100
H -1.16720225 -0.25722025 -1.47705719
H 1.24005506 -0.14247122 -1.77731534
H -1.00673443 1.49380641 2.34838793
