11

N -0.51387566 1.0589188 2.2263741
C -0.5786364 0.4247433 1.1692096
O 0.26677856 1.1131517 0.1011286
C -0.4640877 -0.90396184 -0.6646307
C 0.7484415 0.03213557 -0.70428926
O -1.0276735 -0.7137379 0.65830845
H -1.2231865 -0.62097645 -1.4003066
H 1.6306858 -0.41372305 -0.2364881
H 0.98701406 0.38329482 -1.7119591
H -0.20215213 -1.9573423 -0.7705837
H 0.37669206 1.5974973 1.333237
