10

N 0.19963676 -0.47577122 1.0130236
C -0.29419488 -0.0759566 2.0690327
C -0.817037 0.88449526 -0.5004734
O -1.5409794 1.3051895 0.38605684
C 0.19869024 -0.12566066 -0.2424812
N 1.02443 -0.6409866 -1.2495217
H 1.4557427 -1.514603 -0.9765972
H 1.7472196 0.011582645 -1.5292928
H -0.8829161 1.2549539 -1.5365564
H -1.0905921 -0.6232432 2.5668097
