10

N -0.9415709 -0.49293485 -0.24000344
C -2.072735 -0.9487597 -0.33600646
C 0.22643936 1.4617413 0.40145913
O -0.6879547 2.2278764 0.20949368
C 0.17911743 0.018591452 0.12237365
N 1.330515 -0.752018 0.34290993
H 2.0964851 -0.5270403 -0.27994394
H -2.4751885 -1.0289736 -1.3515733
H 1.1453749 -1.7458928 0.30917996
H 1.1995169 1.7874101 0.8221109
