11

N -0.42358312 0.28326643 -1.778413
C 0.68071747 0.9336416 0.44614497
C -0.040562306 0.1640854 -0.42959353
N -0.37420982 -0.9662141 0.28080064
C 0.15250717 -0.8266095 1.5316746
N 0.7992984 0.30028638 1.6610664
H 0.24788648 0.8344086 -2.2984154
H -0.8528206 -1.7634745 -0.10491014
H -1.3370385 0.71113354 -1.881599
H 1.1212139 1.9059467 0.27227014
H 0.026590904 -1.5764706 2.3009741
