11

N -1.4460644 0.84353775 -0.42318416
C -0.58181727 0.6830327 -1.3818762
C 0.32721567 -0.43508157 0.3258377
N 1.3455969 -1.0123616 1.0537518
C -0.91884077 0.16795346 0.66662115
N 0.49999663 -0.06538916 -0.99586165
H 1.3290867 -0.2906364 -1.5207304
H 0.93812984 -1.4534479 1.8761232
H -0.6719808 1.0892235 -2.3811352
H -1.4409957 0.08286247 1.6103939
H 0.61967313 0.39030686 1.1700602
