11

C -0.018519778 0.8397867 0.72491676
C -0.37206858 -0.045637473 -0.4439072
O 0.74312454 -0.727087 -1.0181592
C -0.2615306 -1.5003314 -0.37596586
O 0.6801488 1.9902993 0.30123147
H 0.5647438 0.25364256 1.4540375
H -0.92851925 1.1920828 1.2207412
H 0.044783756 -1.9747419 0.5561172
H 1.4515291 1.6919761 -0.19576044
H -1.0373726 0.3990542 -1.1847544
H -0.8663193 -2.1190436 -1.0384973
