10

O 0.43149033 -1.37923336 -1.49865675
C 0.26439620 1.18126589 0.53166111
C -1.26685638 -0.44958691 -0.04795020
N -1.10474730 0.75377410 0.48175606
C 0.19217072 -0.84864152 -0.23734825
N 1.06092292 0.30655860 0.08541985
H 0.52547878 2.16158825 0.91822571
H -1.87024075 1.34299385 0.77738267
H 1.38513812 -1.48867355 -1.58526566
H 0.38224743 -1.58004532 0.57477549
