12

O 0.8757931 1.9617215 -1.2822253
N 1.0102493 1.4109687 -0.0077792737
C 0.31506908 0.36347207 0.103103615
C 0.13431595 -0.6058387 1.2435277
N -0.561689 -1.5114514 0.29672316
C -0.58582217 -0.47936484 -0.7705058
H 1.46451 2.7245996 -1.2440209
H -0.4935818 -0.2147061 2.0533607
H 1.048324 -1.0276885 1.6719636
H -1.4814886 -1.7927165 0.61209893
H -1.5643221 -0.018211344 -0.9541062
H -0.16135764 -0.8107845 -1.7221402
