13

C 0.14497752 -1.4340092 0.9155534
C -0.18918556 -0.6215129 -0.3352705
O -0.79826087 1.458777 0.6533333
C -0.009811389 0.8586043 -0.19410187
O -1.5160384 -0.46204308 -0.6099077
N 0.8040457 1.5970539 -0.92549217
H -1.55505 0.77312046 0.5813501
H -0.34607244 -0.9976067 1.7911499
H 0.41847265 -0.99706215 -1.1832038
H 0.6827672 2.5989592 -0.94632834
H 1.2242088 -1.50088 1.1021168
H 1.3928119 1.1690724 -1.6229093
H -0.25286555 -2.4424727 0.7737102
