9

N -2.197597 0.30899572 -1.4305792
C -1.2767485 0.44946012 -0.74719125
C -0.10207409 0.6229998 0.08774877
C 0.4709085 -0.578287 0.7544368
N 1.1746657 0.05688714 -0.34546754
H -0.031860642 1.5931773 0.5722636
H 0.92970043 -0.45805207 1.7326224
H -0.027697979 -1.5289677 0.58504176
H 1.0607036 -0.46621317 -1.2088754
