9

N 1.1144396 -0.55298513 0.9371593
C 0.66946524 -0.32307106 -0.45329523
C -0.22992077 0.6897979 -0.59951735
C 0.09035078 -1.4238428 0.51833093
N -0.9665068 1.6521585 -0.70315087
H -1.944647 1.5204476 -0.9465938
H 0.8546484 0.21350868 1.5697744
H 1.3051579 -0.60030377 -1.288669
H -0.8929875 -1.1757098 0.9659617
