11

N 1.6154971 -1.6004423 0.64318335
C 0.75989044 -0.732251 0.30534133
C 0.85612535 0.6698762 0.7383314
N 0.019951768 1.591507 0.42984354
C -1.0542578 1.2043353 -0.3758106
C -1.2015042 -0.052618846 -0.80308044
O -0.3266802 -1.0400752 -0.49126962
H 1.3978751 -2.5161633 0.255134
H 1.7105653 0.9130477 1.3661189
H -1.7666456 1.9750366 -0.63978475
H -2.010817 -0.4122522 -1.428007
