11

N 0.7871217 -1.016147 -0.14026721
C -0.60391337 -0.9115826 0.15430169
O 0.25825694 -1.1701938 1.2140917
C 1.2328624 0.37543944 -0.26931462
C -1.014058 0.54003817 0.06486644
O 0.21223597 1.2306908 0.18133718
H -1.5047635 0.7264571 -0.9015079
H 1.445515 0.5183996 -1.3381287
H -1.2733346 -1.7096497 -0.16251121
H 2.1340108 0.55543303 0.32137352
H -1.6739329 0.8611146 0.8757592
