11

N 0.62796223 -0.2092615 -1.0288917
C -0.15251921 -1.1499863 -0.4888453
O 1.1746837 -0.24884069 1.1396849
C -0.92184436 0.67507327 0.4369427
C 0.62716633 0.62359357 0.3514343
O -1.2251532 -0.71498716 0.117225744
H -0.08465468 -2.2298434 -0.62337214
H 1.5592413 -0.5429255 -1.2533438
H -1.291901 0.8426596 1.4474097
H -1.3890598 1.3310138 -0.29946855
H 1.0760787 1.6235045 0.20122403
