10

N -2.0349362 -2.0337834 0.4355769
C -1.5214531 -1.0172501 0.24410221
O 1.368899 0.4361452 -1.6641476
C -0.8617228 0.28214172 0.042540286
C 1.531128 0.2830498 -0.4757356
N 0.52535415 0.256369 0.45163533
H -1.4173018 1.0498612 0.5902701
H 2.5287967 0.17462353 -0.011606409
H 0.7557488 0.033020772 1.4079165
H -0.87451273 0.5358222 -1.0205517
