10

N -1.97620052 -0.26081402 -2.11980531
C -1.37223715 -0.44427877 -1.15272913
O 0.31732835 1.47742045 1.59688013
C -0.57437135 -0.70064040 0.05639421
C 1.03807889 1.00721506 0.74746558
N 0.73340675 -0.08700504 -0.01553312
H -1.07999949 -0.26961817 0.92428935
H -0.49187884 -1.78216731 0.20324001
H 1.36259463 -0.34745306 -0.75966297
H 2.04327943 1.40734144 0.51946171
