10

O 1.7098168 -1.7783198 0.8287066
C 1.1518124 -1.4695387 -0.19536653
C 0.19532734 -0.33916587 -0.26347038
N -0.39254594 -0.041220978 -1.3938202
O -1.1929212 1.0331144 -1.1200068
C -1.0662578 1.3606322 0.17839043
C -0.19717789 0.5301738 0.79617584
H 1.3145741 -2.00206 -1.1513107
H -1.6603042 2.2051682 0.5004084
H 0.1376763 0.50121677 1.8202928
