10

O -0.06425614 1.54612 -0.76032925
C 0.37960425 -0.2536968 0.8716587
C -0.6568085 -0.67190164 -1.1328951
N -0.18328105 -1.0358027 0.018135209
O 1.417251 0.9142834 2.7724755
C 0.9226834 0.19533668 1.9527534
C -0.56388605 0.73512465 -1.5165886
H -1.1074227 -1.419542 -1.7787489
H 0.81519914 -1.0344555 2.0769844
H -0.9590833 1.0245337 -2.5034454
