10

O 0.23591552 0.10001275 1.05907783
C 0.86312519 -1.24735958 -0.55461961
C 1.01982040 -0.96028502 0.76025342
N -0.03593448 -0.35506746 -1.09762696
O -1.58424919 2.22603917 0.80886306
C -1.31182151 1.53744343 -0.14442161
C -0.36726694 0.40765698 -0.10282774
H 1.32256932 -2.02290252 -1.14870530
H -1.74315303 1.68688101 -1.14963318
H 1.60099462 -1.37241873 1.56963955
