11

N 0.86938598 1.00813228 -0.38213860
C -0.34639694 -0.49890491 0.88755130
C 0.16135150 -0.99274775 -0.49486743
C -0.55984210 0.70987015 -0.04081895
C 1.45043386 -0.13453320 -0.68993616
O -0.89025331 -0.17067740 -1.10058251
H -1.28241848 -0.97459535 1.18151099
H -1.21806273 1.56655378 0.10497152
H 0.35741736 -0.39929668 1.71662008
H 0.14805739 -2.03040143 -0.81746952
H 1.31032757 1.91660064 -0.36484117
