11

C -0.6053641 1.0111816 0.03640323
N 0.25857466 -1.0888803 -0.09380569
C 0.40826255 -0.6566621 1.2100941
O 0.8583439 -1.2653092 2.142077
C 0.029867355 0.043942623 -0.97131526
O -0.0636053 0.61703515 1.2992567
H 0.9623748 0.44507077 -1.3857946
H -0.65049326 -0.19952421 -1.7905011
H 0.84719527 -1.8579748 -0.37624696
H -1.693771 0.89473546 0.071316205
H -0.35138497 2.056385 -0.14148341
