11

O 0.8695724 1.2781508 -1.552158
C -0.5957763 0.35670748 1.4454794
N -0.7188491 0.64458364 2.5561717
C 0.5437881 -1.1565274 -0.17955242
C -0.4205983 0.010087467 0.02701185
C -0.010214863 1.2699927 -0.73582625
H 0.17591466 -2.0514157 0.32859102
H -1.4177545 -0.25101602 -0.35701025
H 0.6422594 -1.3644984 -1.2469448
H 1.5354345 -0.91211087 0.21055536
H -0.603776 2.1760461 -0.49631724
