11

O 0.00455959 0.74428372 -2.06034981
C 0.09801106 -1.28208487 -0.11023787
N 1.07592661 1.13388429 2.24119029
C 0.45884358 0.69410994 1.37086618
C -0.31113206 0.14652480 0.24384756
C -0.20145537 1.11203312 -0.93660255
H 1.15180673 -1.32221248 -0.39866562
H -0.35073480 2.18133068 -0.68178784
H -0.05962117 -1.94749048 0.74226031
H -1.36882014 0.17341887 0.54474809
H -0.49738405 -1.63379753 -0.95526917
