11

O 1.2550423 -0.6577408 -2.1034997
C 0.6246565 -0.34798363 -1.1142404
N 1.1419041 0.03217365 0.0989559
C 0.13011985 0.3377904 1.0812354
C -1.1393968 0.092837386 0.30401224
C -0.86131424 -0.29243243 -0.93778515
H 2.1346235 0.08571702 0.26068828
H 0.19030875 1.3763471 1.4350519
H 0.1907459 -0.31437472 1.9629484
H -2.119996 0.22775029 0.7503339
H -1.5466939 -0.5400842 -1.7377012
