11

C -0.9313626 -0.020587917 0.8907572
C 0.2562539 0.1039102 -0.03624342
N 0.047336698 0.5928564 -1.323774
C 1.594539 0.43254393 0.5762923
N 1.6703897 -0.82037944 0.3344762
H -0.678991 -0.6401893 1.7542136
H 0.62986124 -1.2151966 -0.11504585
H -0.45165017 -0.0037621188 -1.9686809
H -1.1868261 0.98270696 1.2459126
H -1.8038915 -0.44359785 0.3838245
H 0.8543411 1.0316958 -1.7417322
