11

C -0.12155401 -0.00050481 0.09327689
C -0.09395698 0.85647844 -1.14230385
N 1.64619841 -1.76793595 0.56686666
C 0.82333283 -0.87272019 0.36255725
N -1.18989523 0.25172111 1.00070635
H -2.08643209 0.08356508 0.54835952
H -1.13393559 -0.33069693 1.82782351
H -0.07183107 1.91575528 -0.86411995
H -0.99867986 0.68483583 -1.73823844
H 0.77436908 0.62969668 -1.76605292
H 2.45238450 -1.45019443 1.11112499
