10

N -1.2272925 -0.70886314 -0.2938444
C -0.62729657 -0.006662573 0.69579595
O -1.1232383 0.20328824 1.7826335
C 0.76563364 0.55567735 0.38209912
C 1.3070683 0.19275548 -0.92579335
N 1.6841085 -0.12095043 -1.9728239
H -2.1430318 -1.0932348 -0.115458384
H -0.7880651 -0.884297 -1.1822399
H 0.7072535 1.6454431 0.4614478
H 1.4448605 0.2168438 1.1681836
