10

N -0.5805306 -1.1246598 1.7800431
C -0.32589456 1.1576735 -1.7184596
O 0.23684764 -0.4937848 -0.10432
C 0.749263 0.53811514 -0.9259819
C -0.05268775 -0.08031833 1.1485018
N -1.152924 1.6532788 -2.3533583
H -0.86200136 -1.0103843 2.7383971
H 1.4809825 0.0910202 -1.6030824
H 1.2254827 1.3032383 -0.30705133
H -0.71853757 -2.0341787 1.3453118
