10

N 1.4821197 -0.12250923 -2.0820432
C -0.19145851 0.47339255 0.8056249
O -1.2721769 -0.24722683 0.7986861
C -0.8401572 0.1220578 -0.88707936
C 0.45643672 0.009257994 -1.5585984
N 0.7969308 -0.051523484 1.5452751
H -1.4420129 -0.74167013 -1.1843915
H -1.3313516 1.0658705 -1.0988759
H 1.6754233 0.43153602 1.6390005
H 0.6662464 -0.93918514 2.0224018
