9

N -0.8525737 1.2199885 0.21292867
C -0.60525155 0.33154452 -0.7801768
O -1.1095486 0.33140707 -1.8830365
C 1.0973529 -1.7372652 -0.4520551
C 0.37692842 -0.69865364 -0.42660812
C 1.8526092 -1.7926229 1.136356
N 1.1430967 -0.79672474 1.0687233
H -0.3952459 1.1811812 1.1062622
H -1.5073674 1.9611453 0.017606743
