9

N -0.26002368 1.2216939 1.5185814
C -0.36882356 1.1594498 0.16594435
O -0.7478527 2.0665202 -0.54299706
C 0.014735686 -0.13929442 -0.40985677
C 0.30331275 -1.1645023 -0.97376275
C 0.6353406 -2.340523 -1.6277622
N 0.9124932 -3.3247902 -2.1704552
H 0.03302921 0.43411386 2.0744832
H -0.52221173 2.087332 1.9658248
