10

N 0.23273731 -1.47257427 0.01636878
C 0.75844548 -0.58098707 -1.00419822
C -0.49648707 0.84555522 0.67424221
C 0.56852730 -0.09438706 0.39128450
C -1.39169301 1.60732008 0.92555810
H 0.08243240 -0.18977674 -1.76034432
H 1.76251737 -0.81011532 -1.35146659
H 1.44302691 -0.01570966 1.03439895
H -2.18584793 2.28601529 1.14647643
H -0.77365848 -1.57534021 -0.07231997
