10

N -0.9432347 -0.7097275 0.91077155
C 0.31538236 -1.272417 0.45020944
C 0.06775625 1.7894608 -1.4731545
C 0.17762424 0.19858071 0.6436234
C 0.13122897 1.0637125 -0.5170689
H -1.6196903 -0.6618846 0.15487613
H 0.60436153 0.6438558 1.5403738
H 0.3881622 -1.6316729 -0.573233
H 0.014144691 2.4328794 -2.323597
H 0.86426485 -1.8527873 1.1871991
