10

O 1.6291033 -1.3201147 1.3033681
C -0.43960896 -0.112150684 1.7678214
O -1.1571327 0.57586753 0.95121807
C 0.48314926 -0.23890004 -0.5729367
C -0.744174 0.63492215 -0.4759309
C 0.72296363 -0.66530174 0.87384087
H 1.3663481 0.28070247 -0.9498976
H 0.33028078 -1.1342543 -1.18057
H -0.57980365 1.6937203 -0.6800029
H -1.6111261 0.28550902 -1.0369102
