11

O 0.33768994 1.4816859 0.82579845
N -0.31066424 -1.3903402 -0.77689296
C -0.043795854 -0.2824101 -0.1665841
C 1.0959699 0.69032735 -0.10860929
O -1.3732194 -2.064252 -0.6785422
C -0.78880894 0.57082856 0.8001448
H 2.0320175 0.32222587 0.3297518
H 1.3142864 1.2423192 -1.0313511
H 0.42131892 -1.7556953 -1.4039391
H -0.98576957 0.13243142 1.7855935
H -1.6990248 1.0528793 0.42463028
