11

O 0.91699266 -2.3275497 0.295479
N 1.1596919 -0.9550267 0.3638751
C 0.27574685 -0.10130071 0.08672293
C -1.1556361 -0.17571442 -0.35893875
O -1.2037855 1.2672557 -0.386396
C 0.16314061 1.3973068 0.04322506
H -1.3195848 -0.62495947 -1.3453945
H 1.9722525 -1.6772646 0.624215
H -1.8506553 -0.6090457 0.3700569
H 0.2508491 1.9078275 1.0081561
H 0.7909879 1.8984715 -0.7010009
