10

C 0.95783377 -0.98082674 -0.26097012
C -1.0007896 0.92170346 0.29678658
N 0.44439405 0.8832763 0.32947388
C -1.0612141 0.25982752 -0.8611498
C 1.0165272 -0.32091963 0.8971188
N 0.3786137 0.14896616 -0.9563877
H -1.7782624 -0.035180196 -1.6118908
H 1.4060148 -0.4318804 1.8974818
H -1.641554 1.4664899 0.9729346
H 1.2784364 -1.9114563 -0.7033974
