11

O -1.17238677 1.23602607 1.05070736
C 1.69325716 0.29531025 -0.65407379
C -0.82005834 -0.94083542 0.19998085
N 0.54649695 0.87525329 -0.45781643
C -0.55745145 0.40385012 0.35607856
O -1.84581675 -1.46117826 0.89838799
H 2.40352385 0.72492135 -1.34576793
H 1.91831111 -0.61791800 -0.11839524
H -2.17762378 -0.71337025 1.42836241
H 0.38356989 1.80677795 -0.82881723
H -0.37182193 -1.60883706 -0.52864645
