11

O -2.3694959 -0.10352536 0.8508549
C -0.48355174 0.455235 -0.39947185
C -1.0875542 -0.3613101 0.5332356
N 0.88599133 0.08049283 -0.6948837
C 1.8134904 -0.2681393 0.1466096
O -0.98084825 1.4082476 -1.0300546
H 2.7774475 -0.59332925 -0.21742812
H -0.6843677 -1.2788699 0.9498463
H 1.6017452 -0.22896296 1.2073715
H 1.1162753 0.198833 -1.6771718
H -2.589132 0.6913284 0.33109236
