10

O -0.016593833 -1.3773614 -0.955827
C -0.4044853 -0.38672775 -0.051739242
C 0.68484735 0.009458218 0.9440683
O 0.6321118 1.3860195 0.47255468
C -0.26117 1.0729966 -0.50464743
O -0.692046 1.7730343 -1.3655976
H -0.65523803 -1.3973471 -1.6802642
H -1.3822242 -0.5839989 0.41037643
H 1.6534988 -0.44344592 0.72585654
H 0.4412995 -0.05262777 2.0052195
