10

O -0.6091009 -0.86203194 0.77357113
C 0.03881864 -0.62730366 -0.44120577
C -0.43315318 0.5464823 1.1232445
O -0.2521807 -1.4775668 -1.4387933
C 0.26146287 0.7931404 -0.20368427
O 1.3472311 -0.18597329 -0.24195538
H 0.34644184 1.680712 -0.81537414
H -1.403386 1.03852 1.2212275
H 0.17499349 0.6548989 2.0235558
H 0.52887267 -1.5608778 -2.0005858
