14

C 2.122124 -0.16714704 -1.1972594
N 1.1219903 -0.54366064 -0.21365082
C -0.032473452 0.20677812 -0.117287554
O -0.1886288 1.2721932 -0.68950117
N -0.9979006 -0.36735052 0.68943495
C -2.1570063 0.4272895 1.0627047
H 1.8418616 -0.4522663 -2.2195425
H 3.0697315 -0.6440841 -0.93972397
H 2.2499654 0.91549 -1.1680312
H 1.0172812 -1.5362229 -0.0517202
H -0.65386635 -0.9952727 1.4039348
H -2.9267602 -0.23584034 1.4629339
H -1.9218925 1.1990047 1.8069975
H -2.5444257 0.921089 0.17071106
