14

C 0.47532803 0.16537935 -0.5347353
N 1.2593029 -0.840592 -0.57245564
C 0.9113975 -1.9888276 0.23968096
O 0.73516476 1.2498102 -1.2929559
N -0.68398654 0.3145007 0.17477997
C -1.3406024 1.5970165 0.33930707
H 0.9011925 -1.7549537 1.3166714
H 1.6582006 -2.7713473 0.083675504
H -2.3160386 1.4220446 0.7971875
H -0.070860654 -2.4072566 -0.02709976
H -0.76930404 2.2916164 0.96795297
H 1.5356754 1.00797 -1.7804818
H -1.493686 2.0616183 -0.63626856
H -0.8017837 -0.34697914 0.92474174
