14

C 1.75791117 -1.14904165 -0.65801153
N 1.43555814 0.26282237 -0.70017243
C 0.28067028 0.61472041 -0.28735335
O -0.08305013 1.91248060 -0.33128301
N -0.72791255 -0.17373771 0.19301509
C -1.88710481 0.36856650 0.87509997
H 1.06432076 -1.75429285 -1.26107802
H 2.76249371 -1.29441660 -1.06306669
H 0.67879316 2.35547694 -0.73170092
H 1.75666476 -1.55049552 0.36841079
H -0.43904399 -1.09792304 0.46925924
H -2.60992888 -0.43852013 1.00882350
H -1.64377742 0.79746139 1.85534864
H -2.34559411 1.14689925 0.26270883
