10

N 0.22558783 1.7668239 0.39536226
C -0.20257454 0.4807444 0.16376854
N -1.4016825 0.04912172 0.36179677
O -1.334133 -1.3396267 0.10233471
C -0.079702064 -1.697852 -0.26326057
O 0.28465044 -2.810227 -0.52468705
N 0.6430542 -0.5121167 -0.259072
H 0.7519585 2.1751175 -0.36478788
H -0.53493524 2.3661344 0.68579197
H 1.6477764 -0.47811928 -0.29724675
