10

C 0.38673884 2.0520568 1.5026869
C 0.18221435 1.0907298 0.8061748
C -0.05819154 -0.041994818 -0.019038152
C -1.2065725 -0.72100735 -0.37356675
N -0.8699098 -1.7412455 -1.2012906
N 0.4133215 -1.7385579 -1.3832211
N 0.91451067 -0.7243527 -0.6795035
H 0.55916286 2.9057164 2.1220202
H -2.2291644 -0.5311411 -0.08476695
H 1.9078898 -0.5502033 -0.6894947
