10

C -0.34759633 2.86950493 1.05290461
C -0.16616252 1.67939160 0.65132686
C 0.02833191 0.41818311 0.22520235
C -0.65687069 -0.37698695 -0.84264212
N -0.00155348 -1.68677838 -0.80687494
N 0.88172061 -1.69546266 0.06717408
N 0.92933175 -0.46172558 0.69963461
H 1.60158209 -0.32300731 1.44041159
H -1.72748209 -0.49331916 -0.65224045
H -0.54130146 0.07020073 -1.83489643
