10

N 0.60666543 -0.17348687 3.303392
C 0.35353735 -0.029871682 2.1846788
C 0.042189594 0.13412699 0.79740846
N -0.6539503 1.1205869 0.2865519
C -0.7017939 0.8640448 -1.0522245
C -0.025355965 -0.29140368 -1.3505613
N 0.4500586 -0.75342876 -0.15500672
H -1.221508 1.5246972 -1.7312974
H 0.1542899 -0.808824 -2.2791805
H 0.99586713 -1.5864409 -0.0037605718
