10

N 0.63136005 -0.22980338 0.38330305
C -0.017359305 0.7677198 -0.27527222
C -1.1875358 -1.037426 -0.7814296
N -1.0888627 0.38450179 -0.9001605
C 0.47435907 2.1189146 -0.23130688
C -0.11832051 -1.3709263 0.114605926
N 0.88172215 3.1956737 -0.18172564
H -1.2879391 -1.3422989 0.5576354
H 0.2601037 -2.3585424 0.35724565
H 1.4524724 -0.12781301 0.9571047
