12

N -0.9261217 2.078153 1.7914373
C -0.85693526 1.2734922 0.96529406
C -0.7616809 0.22231506 -0.0650858
C 0.39614558 0.4754744 -1.0853977
N 1.4864066 -0.41004843 -0.68116695
C 1.0056689 -1.1941278 0.1949338
N -0.34483197 -1.0571389 0.5074062
H -1.7333722 0.13449511 -0.55980176
H 0.06914194 0.21721067 -2.0970552
H 0.7263857 1.5167495 -1.0898389
H 1.5761914 -1.9879369 0.6680262
H -0.6369982 -1.268638 1.4512486
