12

N -0.54037328 1.46806758 -0.82857659
C -0.28376175 1.03118776 0.50362335
C -0.92431768 -1.33760282 0.09548225
C -0.70586987 1.76588242 -1.95035751
N 1.37871005 -0.59777928 -0.24940781
C 0.16886299 -0.43443628 0.53082911
N -1.72478194 -2.08210828 -0.27253911
H -1.19273305 1.16460644 1.09600119
H 1.19389258 -0.39816023 -1.22913468
H 0.51777155 1.64383986 0.92396870
H 1.71686346 -1.55059860 -0.19467825
H 0.39573683 -0.67289865 1.57478920
