9

O 1.7439677 0.5411544 -1.6424065
C 0.8897412 0.3541699 -0.8191071
N 0.26713303 -0.8136039 -0.4425503
C -0.67254937 -0.5565719 0.55672884
C -0.61523455 0.7578754 0.7836472
O 0.32551414 1.3356253 -0.037683755
H 0.48667148 -1.7018307 -0.8589155
H -1.2801454 -1.3264576 1.0018922
H -1.145098 1.4096391 1.4583949
