9

O -1.983569 1.0412402 0.024009723
C 1.070608 -0.92297226 -0.013459069
N -0.4621145 -0.8059678 0.024073524
C -0.8555879 0.6487904 0.0056770947
C 1.3724507 0.3729689 -0.03881233
O 0.2616938 1.3186967 -0.0292378
H -0.88524 -1.2883158 -0.77181464
H -0.8389804 -1.252995 0.86312866
H 2.3207393 0.8885546 -0.06356516
