9

N -0.12079888 0.67608514 1.16934043
C -0.30624965 0.88482591 -0.15001853
O -0.69300244 1.91595346 -0.65045127
C 0.01243764 -0.32906446 -1.00876527
C 0.49056590 -1.55457699 -0.44538526
C -0.14000001 -0.31891422 -2.31916498
N 0.87088138 -2.52172100 0.05956072
H 0.20031395 -0.19978183 1.55155550
H -0.31414808 1.44719391 1.79332843
