11

N 1.3601302 -0.66725594 2.595714
C 0.6576208 -0.6747335 1.6806568
C -0.24397993 -0.6534651 0.51397276
C -0.5303049 0.7430874 -0.075519286
C 0.24345286 0.22040425 -1.2918328
O 0.40516633 -1.0764259 -0.68377614
H -1.1225867 -1.265023 0.7471417
H -1.5908958 0.93572533 -0.24386537
H -0.07712647 1.5781149 0.46026114
H -0.31405255 0.1597833 -2.2296238
H 1.2125762 0.6997884 -1.4731289
