11

C -0.9894015 0.891917 -0.11814367
C 0.057357024 -0.19542001 -0.17122816
C 0.67603314 -0.7372343 1.0473589
O -0.3132586 -1.4651916 0.33725145
C 0.8369018 -0.24547637 -1.4080082
N 1.4458959 -0.24857032 -2.3892694
H -1.7173283 0.76190853 -0.92368627
H -1.5143071 0.8471539 0.83908206
H -0.5251862 1.8772006 -0.22547902
H 1.6804894 -1.1559091 1.0060736
H 0.3628043 -0.33037835 2.0060487
