12

N -0.45561665 -0.45203558 1.9164923
C -0.14112669 -0.13311109 0.5990891
C -0.9275663 0.7209012 -0.17472315
N -0.5976039 1.0826231 -1.4139843
C 0.53840053 0.5797819 -1.8930986
N 1.3698449 -0.24647886 -1.2569675
C 1.0244617 -0.59561276 -0.023037503
H -1.4325805 -0.38492006 2.1607842
H -0.037460774 -1.3023981 2.2667344
H -1.8564342 1.1301872 0.21980292
H 0.8162236 0.87090814 -2.9025784
H 1.6994585 -1.269845 0.5014869
