10

O 0.4128146 0.051571973 0.8737146
C -1.5823269 0.6739567 0.21313557
C -0.7392577 0.60182476 1.2785189
N -0.9464129 0.15625542 -0.89251
O 2.39998 -1.0878464 -0.5713162
C 0.22758105 -0.19661665 -0.4559977
C 1.3045107 -0.8080828 -1.2233409
H 2.3269665 -1.330837 -1.7065152
H -2.5900412 1.0576537 0.16763751
H -0.8138143 0.8821202 2.3166733
