9

N 1.0258818 1.791609 -1.5588367
C 0.6181268 -0.12518424 0.17288823
C 0.8512288 0.93486416 -0.80215895
C -0.44981015 0.046820976 1.1926672
N -0.46469545 -1.0322754 -0.2214664
H -0.90723664 -1.2262126 0.7980459
H 1.5389885 -0.6407732 0.4471243
H -1.1148447 0.86118597 0.8687199
H -1.097639 -0.6100348 -0.8969833
