12

N -2.132364 0.56226385 -0.07795404
C -0.7863134 0.19807416 -0.04154938
N 0.1514009 0.81794834 0.6372688
C 1.3082283 0.16131447 0.30672562
O 2.4942527 0.5421433 0.8306878
C 1.0856147 -0.8668224 -0.55659604
N -0.2987416 -0.83277273 -0.7683646
H -2.2943718 1.3116179 0.58477676
H -2.7560291 -0.21000138 0.114773855
H 2.3052325 1.277814 1.4283903
H 1.7324985 -1.607002 -0.99664867
H -0.80940807 -1.3545771 -1.4615105
