12

N -2.00514984 0.64158490 0.44305504
C -0.75495524 0.23164153 0.07323627
N 0.37134558 1.06628504 0.40885121
C 1.52281117 0.59590890 -0.03491614
O 1.77178646 -1.79376034 -0.56480349
C 1.03495188 -0.63624201 -0.80555781
N -0.41985490 -0.80002948 -0.58036232
H -2.07793292 1.16658326 1.29990139
H -2.72069318 -0.05648929 0.30164587
H 0.28444192 1.92152935 0.94242076
H 1.81617371 -1.92116287 0.39138698
H 1.17707499 -0.41584857 -1.87485785
