10

O 0.9705714 0.7445036 -1.2917842
C 0.45293725 0.09815305 -0.17282833
C -0.557317 0.76745474 0.7692652
O -0.2534832 -2.1200786 -0.52923644
C -0.53509265 -0.9249956 -0.2118455
O -1.4167569 -0.4527896 0.66039324
H 1.9242033 0.80299056 -1.1807142
H -1.081134 1.6266024 0.34464687
H 0.7992623 -1.4550254 -0.20848517
H -0.3031904 0.9131847 1.8205886
