10

O 0.82380867 1.4481497 -0.6425782
C -0.041141346 0.15916641 1.1196588
C 0.77251863 1.2522196 0.74306375
N 0.14274707 0.43230468 -1.194722
O -1.5721852 -2.2948914 0.16865297
C -1.1068364 -1.5227181 -0.6247207
C -0.3109867 -0.32482338 -0.23086591
H 1.0657762 2.130357 1.3103006
H 1.4608616 0.35511574 1.070735
H -1.2345625 -1.6348803 -1.7195243
