10

O -1.17138945 1.39515583 0.66586775
C 0.02815349 0.73347604 0.39384086
C 0.18572735 -0.77646398 0.78676115
O 0.02332771 -1.40764526 1.78983412
C 0.32601348 0.20372627 -1.00184527
C 0.51494315 -1.07792464 -0.64484739
H -1.89810627 0.84744943 0.34037967
H 0.37597821 0.71295454 -1.95935832
H 0.83346965 1.35353478 0.80464175
H 0.78188266 -1.98426322 -1.17527458
