10

O -0.95286936 1.853295 0.995968
C -0.29514146 1.1041197 0.025608629
C -0.13938741 -0.339609 0.46833828
O -0.56529194 -0.7021654 1.5444366
C 0.53800285 -1.2346747 -0.45815545
C 1.1014122 -1.9456058 -1.2471563
H -1.1500508 1.2380514 1.7199883
H 0.7065525 1.5090792 -0.18223102
H -0.8437101 1.1089355 -0.9283902
H 1.6004835 -2.5914261 -1.9384071
