11

C -0.60963655 0.07629928 0.41225606
N -1.8024613 -0.048594277 0.7794801
C 1.0415374 -1.3764348 -0.54863936
O 0.26971427 -1.0206593 0.5057507
C -0.010628855 1.3825599 -0.005912639
O 1.0479901 -0.8725935 -1.6339505
H -2.0088327 -1.0104702 1.042834
H 1.663235 -2.2270317 -0.23582794
H -0.75107014 2.165737 0.15665928
H 0.88643 1.589153 0.5868976
H 0.27372304 1.3420347 -1.0595474
