9

O 1.6808705 0.92784864 0.6076475
C 0.56395537 0.30781478 0.1949508
N 0.4309679 -0.24555872 -0.99826455
N -0.80905837 -0.7258408 -0.95640475
N -1.4796212 -0.5300356 0.15456654
C -0.62369114 0.13697666 0.9254033
H 2.3235283 0.892169 -0.112424575
H -1.2088169 -1.2164704 -1.7403054
H -0.8781345 0.4530965 1.924831
