12

O -1.7422495 -0.505954 1.8904549
N 1.0020757 -0.6798793 -0.8687425
C 0.8976018 0.42384395 -1.8007848
C 0.13486317 -0.74657214 0.10835342
N -0.11945633 0.47208354 0.81735265
C -0.8175007 0.39749536 1.8869063
H 0.55547374 1.3697196 -1.3590811
H 0.2571744 -1.6889559 0.6653804
H -0.74530333 1.0937775 2.7191536
H 0.19933438 0.14508969 -2.601271
H 1.8784794 0.5811659 -2.263824
H -1.5004926 -0.86181414 0.8061023
