9

N -1.11285038 -0.68735352 -1.25886863
C -0.16109053 -0.28471832 -0.52295174
C -0.25813545 0.39646590 0.76168234
N 0.82607006 0.75923432 1.38776783
N 1.75765076 1.08143700 1.93718940
O 1.11760737 -0.47669439 -0.91735205
H -2.02376403 -0.49299332 -0.85253326
H 1.05018852 -0.92544670 -1.77421723
H -1.19567620 0.63006892 1.23928369
