10

O 1.25837101 -1.36962067 0.65649452
C -1.11197663 1.07652374 -0.89774480
C 0.31134166 -0.39776650 0.60224311
C -0.06266524 0.09221421 -0.75724439
N 0.02364012 1.58975059 -1.01016007
N -0.25780837 0.06604382 1.63257321
H 0.13600275 -0.35260980 2.47563042
H 1.65788808 -1.50373689 -0.21364163
H 0.20101405 -0.55130430 -1.59809262
H -2.15580762 1.35050570 -0.89005759
