10

O -0.23781139 -0.17391631 2.0268605
C -0.1072056 -0.03623384 0.691464
C 0.7025942 -0.61583894 -0.26030785
C 0.29206762 0.0090447 -1.465836
N -0.675558 0.8876651 -1.2758332
N -0.9052743 0.8445704 0.054829974
H 0.40079337 -0.8263845 2.3383663
H 1.4657556 -1.3657787 -0.112123266
H 0.6750945 -0.1576412 -2.463559
H -1.6104562 1.4345132 0.4661387
