10

O 1.5590394 -1.1712517 0.29649475
C 0.66180027 -0.15649661 0.39417994
C -0.52312183 -0.22606982 -0.5109652
C -1.5545572 0.7822543 -0.41565752
N -0.8010477 0.9804675 -1.3947384
N 0.7869513 0.7950935 1.2184647
H 1.3570824 -1.7312657 -0.4653029
H -0.74841255 -1.2007612 -0.9467282
H 1.6629173 0.7064207 1.7341431
H -2.4006512 1.221609 0.09010995
