10

N 0.12156557 0.79668564 2.784036
C 0.82979953 0.014230992 0.37964827
C -0.9100223 0.034854397 -1.3395245
O -0.5711917 1.1044191 -1.788717
C 0.4326131 0.47165373 1.7199477
N -0.2706203 -0.6177255 -0.3257451
H -1.7723095 -0.53941876 -1.7267296
H -0.6790304 -1.464211 0.042508893
H 1.6757048 -0.6745813 0.47210044
H 1.1434915 0.8740924 -0.21752505
