10

N 0.18877473 -0.45297256 1.9695051
C -0.40361866 1.1100724 0.055120505
O -0.3404324 0.8616006 -1.3097992
C 0.02310802 -0.025533691 0.7611692
C 0.111648686 -0.33166867 -1.4842942
N 0.3510065 -0.9111826 -0.32027054
H 0.2570871 -0.73500913 -2.475278
H 0.7026754 -1.8443227 -0.16699284
H -0.0732069 0.26453102 2.6353824
H -0.8170425 2.0644853 0.3354574
