11

N -0.19536913 1.47502338 -1.17109043
C 0.34113004 -1.05303997 0.11186844
C 0.54374403 0.64729215 1.67703240
O 0.00457363 -0.50501938 1.40147497
C -0.78458717 0.39037790 -1.39770371
O -0.68510701 -0.83884981 -0.79348343
H -1.51939570 0.31228708 -2.19585642
H 0.40390596 -2.13208423 0.25688314
H 1.28477237 -0.60778799 -0.21467475
H 0.16167760 0.86014645 2.70026274
H 0.44465493 1.45165399 -0.37471299
