11

N 2.1541898 0.6098135 0.19042663
C -0.9275221 -0.8805248 -0.553151
C 0.9695967 0.32466337 -0.06609444
O 0.46039516 -0.8316564 -0.576157
C -0.8755551 0.9588648 0.7223553
O -1.31501 -0.26565805 0.6857918
H -0.7428672 1.2959788 1.7581007
H -1.2435082 -1.9210515 -0.5242126
H 2.7576728 -0.18485586 -0.025457986
H 0.11772727 1.2123268 -0.22115012
H -1.355119 -0.31790087 -1.3904511
