11

N -1.2220447 -0.9253706 -0.43386474
C -1.1275452 0.44075602 -1.0136266
C 1.3424165 0.12646261 1.144533
O 1.1683825 -0.28141758 -0.21005325
C -0.20313503 -0.06507134 0.0050851437
O -0.0548906 0.30572692 1.3415841
H 1.9032143 1.0609885 1.2304676
H 1.7624971 -0.66642946 1.7663095
H -1.9561958 1.0910424 -0.7499871
H -0.8834064 -1.6457554 -1.0592357
H -0.7292926 0.559068 -2.0212119
