11

N 1.04133291 2.41718583 0.56090475
C 1.10605172 1.27167246 0.44010257
C -1.32113096 -0.06460502 -0.51648287
C 1.15077402 -0.18481516 0.28614887
C -0.23328811 -0.84396229 0.18083832
O -0.38359260 -1.95827668 0.61423088
H -1.59362063 0.80580268 0.08997888
H -2.19540624 -0.69865740 -0.66340491
H -0.96352260 0.31609261 -1.47911926
H 1.69778816 -0.42192433 -0.63350292
H 1.69461427 -0.63851303 1.12030559
