9

C -0.14820424 -0.16297849 0.8263104
C 0.4426047 -0.44502133 -0.31272513
C 1.0353976 -0.7371467 -1.4321448
C -1.0727382 0.9862964 0.9690588
O -1.3667438 1.7557068 0.08381462
H -1.4976332 1.0964724 1.989803
H 2.0044916 -0.31047153 -1.6759499
H 0.030925758 -0.7790035 1.7058686
H 0.5718995 -1.403854 -2.1540356
