9

C 0.77492464 0.11910978 -1.6545352
C 0.15212104 0.023173042 -0.33432522
C -0.34907398 -0.044126973 0.7594823
C -0.9721989 -0.15034766 2.067713
O -0.65525216 0.5136748 3.0281687
H 0.8133085 1.1618108 -1.9856553
H 0.21787168 -0.4591815 -2.3974178
H 1.8008586 -0.26194832 -1.6184756
H -1.7825596 -0.90216386 2.1350453
