9

C 1.31234760 0.09243209 -1.39128438
C 0.24612938 -0.02077757 -0.65629911
C -0.84073267 -0.13878494 0.07226827
C -0.81874249 0.00819077 1.54667917
O 0.16678024 0.24217463 2.20704682
H -1.79875243 -0.34998655 -0.39973704
H 1.61756940 1.05559958 -1.79078841
H 1.92949764 -0.77398967 -1.61281308
H -1.81409684 -0.11485823 2.02492795
