10

O 0.82074386 0.9329302 -1.7125502
C -0.016478367 0.81427366 -0.60633314
C 0.20760438 -0.4879243 0.121504754
O 1.0215025 -1.299616 -0.2578606
C -0.61698693 -0.7869715 1.366613
O -1.4440032 -0.02394097 1.7916774
H 1.3472161 0.12161531 -1.7508744
H 0.14184287 1.6340858 0.110332705
H -1.0784538 0.86061716 -0.895024
H -0.38298738 -1.7650694 1.8325142
