10

O 0.73236518 -0.12360440 -1.00910304
C 0.47907058 0.95726207 -1.68141348
C 0.42150928 -0.01148719 0.41257779
O 0.92263849 -1.09198080 1.06929436
C -1.09404980 0.07459889 0.53105346
O -1.68966109 -0.72513742 1.22171010
H 0.78125068 0.67137736 -2.71935366
H 0.87757913 0.92955245 0.74738523
H -1.59159415 0.88810920 -0.01900643
H 0.16089175 -1.56869021 1.44685539
