11

O 1.2002369 0.6364604 -1.9656823
C 0.16363369 0.6860448 -1.3578095
C 0.043392587 0.16459471 0.053661894
C 0.86399204 -1.0042132 0.43947822
O 1.1978962 0.2901497 0.8713629
C -1.2513186 0.3642445 0.7776219
O -2.286761 0.597218 0.20616344
H -0.7697238 1.0993565 -1.7843102
H 0.49561876 -1.684052 1.208107
H 1.5157287 -1.4199288 -0.3271895
H -1.1726953 0.2701253 1.878596
