10

O 0.33622304 -0.5101229 -2.2365048
C 0.14797825 -0.32477874 -1.0693269
C -0.9070476 0.48458743 -0.26482865
C 0.010222596 0.2679722 0.9406255
O 0.0732238 -1.1301833 1.1355283
C 0.9740572 -0.55387074 0.18809482
H -1.9082817 0.059754916 -0.16999194
H -0.9647263 1.5138799 -0.6306974
H 0.20360844 0.9221989 1.7815726
H 2.0347424 -0.72943753 0.3255282
