10

O 0.86344759 -0.23020882 -1.21747911
C -0.45873156 -0.36983591 -0.60023595
C -0.52126354 0.79632543 0.36764078
C 0.52642472 -0.02199159 1.16211895
O 1.09956559 0.16344202 2.19652866
C 0.44387824 -1.26885350 0.22366251
H -1.24583639 -0.66470392 -1.28925688
H -0.26183305 1.79128566 -0.00405278
H -1.46372771 0.82947285 0.92336373
H 1.01807624 -1.02493209 -1.76229017
