11

C 1.15055125 1.09138156 -0.21888217
N 0.31589986 0.10447529 -0.00711176
C 0.52369583 -1.19629267 0.33557665
N -0.66086546 -1.86427069 0.44425179
C -1.16100679 0.20686408 -0.11207994
N -1.66198122 -1.12012925 0.20132817
H -1.43940932 0.49645753 -1.12846074
H 0.75803408 2.06316611 -0.48888064
H 2.21248739 0.90880112 -0.12414035
H 1.49622202 -1.63325887 0.49305223
H -1.53362718 0.94280584 0.60534654
