10

N 1.2973971 -1.2129437 1.0676494
C 0.6680467 -0.2749335 0.48173636
N 1.0005105 1.0703429 0.45351374
O -0.0009040345 1.6607609 -0.30139518
C -0.61532325 -0.5022419 -0.31266332
C -0.8968211 0.87624466 -0.7376827
H 2.1189885 -0.83626026 1.536007
H -1.4160745 -0.926918 0.30498287
H -0.46983418 -1.1775829 -1.1653805
H -1.685986 1.3235319 -1.3267679
