10

N 0.74448838 0.83025840 1.05296627
C -0.36628843 -0.38177140 -0.66985920
N -0.50447649 -1.09899104 1.68287526
O 0.93474903 1.39108026 -0.20026622
C -0.05975121 -0.27461584 0.82155993
C 0.36509865 0.79374292 -1.16316106
H -1.44203013 -0.32909138 -0.87732917
H 0.00430167 -1.31588728 -1.11084629
H -0.17924754 -0.83621364 2.61101095
H 0.50315607 1.22148902 -2.14695063
