10

N 0.48941872 -0.29801685 1.422431
C 0.087852314 -0.74935824 0.24577023
N -0.6388258 -1.8078202 -0.12885222
O 0.74898374 1.0962619 1.2111076
C 0.0032488818 0.36833188 -0.7599376
C 0.44264793 1.4437037 0.0001545179
H -0.8488508 -2.4184473 0.6556445
H -1.0631793 -0.37582278 -0.5583344
H 0.6271651 2.4812107 -0.25981796
H 0.15153907 0.25995728 -1.8281657
