11

C -0.036685422 1.3519948 -1.733771
C -0.31955078 0.20412901 0.40898654
C 0.15046196 0.06859899 -0.98164296
O 1.3248411 -0.49081483 -1.0074875
C 0.043496974 -0.82907593 1.3673462
N -0.15988569 2.3394427 -2.3221138
H 0.36709055 -1.7367162 0.8499805
H 0.93876433 -0.45897603 1.8932332
H -0.734369 -0.9739022 2.1233542
H -0.83919024 1.0963563 0.76714784
H -0.7349738 -0.5710368 -1.3650329
