11

C -0.69517741 -1.15060390 0.35272568
C 0.06504878 -0.39685926 -0.70289124
C 0.67103698 0.92536297 -0.46835828
O -0.53182027 0.79076952 -1.21067538
C 0.56481648 1.57098816 0.83079546
N 0.50439242 2.07515333 1.86817427
H 0.54300031 -1.00218730 -1.47537477
H -1.52571701 -1.69699665 -0.10288337
H -0.03803780 -1.87515030 0.84501015
H -1.10008249 -0.47194188 1.10800215
H 1.54254003 1.23146497 -1.04452464
