9

N 1.3536801 -1.3251933 2.1561012
C -0.122494765 0.42502233 -0.25698543
C 0.7720188 0.57797045 0.7759064
N -0.80182844 -0.67952335 -0.6562328
N 1.0285234 -0.49071828 1.465438
O -0.4383751 1.48533 -1.0153242
H 0.062362786 2.2296555 -0.65104187
H -1.3095074 -0.64052045 -1.5231118
H -0.5443795 -1.5820229 -0.29474935
