10

C -0.8226853 -0.14686693 -0.44225785
C 0.31379497 0.77001494 -0.73909956
N -0.5251506 1.041738 0.41693065
C -0.25695324 -1.3197365 0.30002546
C 0.8361017 0.478119 0.6124071
N 0.7667141 -0.9420833 0.95414615
H -1.7516752 -0.1322613 -0.9989941
H -0.6404997 -2.3347597 0.29875165
H 1.5610721 1.1022552 1.1233761
H 0.5192813 1.4835805 -1.5252855
