10

C -1.2198684 -0.38344967 -0.34953704
C -0.092136346 -0.8130772 -1.0440581
N 1.1346378 -0.43150532 -0.69811594
C 1.2199205 0.38185242 0.34859625
C 0.091208234 0.8132086 1.0447853
N -1.1347537 0.43283054 0.69837785
H -2.2161355 -0.7033829 -0.64748657
H -0.18112314 -1.4792209 -1.8998039
H 2.2158394 0.70361704 0.6472227
H 0.18241125 1.4791272 1.9000195
