12

C -0.89517766 0.3010728 0.32962796
C 1.1181195 1.8117588 0.4933757
O 1.9774015 1.1116813 0.0033136965
N -0.21119328 1.4607002 0.6582307
C -0.6960386 -1.9082919 -0.63234335
N -0.1457881 -0.6264985 -0.22626491
H 0.84635925 -0.4605038 -0.38011298
H 1.33448 2.828597 0.8653373
H -0.20090781 -2.724524 -0.098617986
H -1.758955 -1.9060944 -0.38453177
H -0.79277074 2.1674762 1.082214
H -0.5755289 -2.0553732 -1.7102284
