10

O 1.03570422 -0.99054640 -0.34452414
C 0.04535511 -0.61657087 0.63785693
C -0.80630962 0.42827851 -0.09413668
O -1.43005936 0.05314459 -1.25221859
C 1.16391329 0.24360141 0.33456440
O 0.40835417 1.22797532 -0.30549626
H -0.80831876 -0.51664364 -1.72875527
H -0.19594884 -1.31422210 1.43039863
H -1.51870298 0.98518246 0.51708665
H 2.10601246 0.49980079 0.80522416
