11

N -0.59409344 1.37405093 0.92085997
C 0.03328525 0.77661787 1.90970719
C -0.16069114 -1.34828628 -0.40699634
N 1.07911831 -1.66890332 -0.79830843
C -0.87711992 0.94614520 -0.42009276
N -0.59125628 -0.19500425 -0.86223282
H -0.99821753 2.28323171 1.12138037
H 0.41128410 -0.17822781 1.49649474
H 1.42765393 -2.58854701 -0.57285917
H 1.68163358 -1.07724090 -1.36422143
H -1.41159674 1.67616368 -1.02373126
