11

N 0.76623803 -0.56899494 -1.3774389
C 1.2230344 0.49959186 -0.61709267
C -0.33633998 -1.3119988 -1.1528331
N 0.6719376 0.74261147 0.5167956
C -0.19257665 -0.16990688 0.9871209
N -1.2472925 0.32217112 1.6264188
H 2.0869737 1.0597166 -0.9664577
H 1.4699619 -0.96817315 -1.99367
H -1.470737 1.3131498 1.6534251
H -1.1038605 -0.6132289 -0.78591055
H -1.8673388 -0.3049384 2.1096427
