10

O 0.46657655 -1.4150345 -1.8990431
C 0.5724269 0.7299557 -0.7171731
N -0.42767656 -0.06454547 1.1535324
C 0.14460234 1.0336603 0.5219128
C 0.2077421 -0.6705872 -0.9762209
N -0.5475422 -1.0417475 0.15450189
H 1.127363 1.3485434 -1.4069686
H -0.44383085 -1.9941251 0.47577938
H 0.20922649 1.9674625 1.0683299
H -1.3088878 0.10641801 1.6253494
