10

O -1.0635293 -0.8541143 -2.0022485
C 1.1301802 0.4583631 0.28960836
C -0.73212266 -0.54088616 -0.92710525
O 0.21159782 -0.24157846 1.2125208
C -0.90339386 -0.49835256 0.46920177
O 0.3569948 0.93935704 -0.74524736
H -1.6433746 -1.1156498 0.9721509
H 1.8652015 -0.2794537 -0.056244716
H 1.5935581 1.2600222 0.86531776
H -0.81511223 0.8722927 -0.07795375
