10

O -0.68041010 -2.26143864 -0.13385058
C -0.37198566 -1.10719153 -0.12440373
C -0.50856610 1.13304459 -0.38566936
O -1.11874349 -0.11877651 -0.67357389
C 0.85923378 -0.44922306 0.47579882
O 0.82217941 0.87166613 -0.01645132
H -0.51321914 1.75354548 -1.28341479
H 0.80753987 -0.49024195 1.57275582
H 1.77555431 -0.94443364 0.14278051
H -1.07158306 1.61304940 0.42602858
