10

N -1.666508 -2.1626744 0.4135662
C -0.98822844 -1.421859 -0.15820174
O 1.382503 -0.3122857 0.3830818
C 0.91537684 0.7692461 0.81746393
C -0.16904666 -0.5223518 -0.93042755
N -0.18305828 1.1958369 0.2800528
H -0.7523629 0.117725074 -1.5816557
H -0.61794066 2.0500863 0.61216307
H 0.6411836 -1.014154 -1.4565772
H 1.4380814 1.3004308 1.6205347
