10

N 2.86518457 0.46369543 -0.33376454
C -1.36848275 0.45518348 0.77053201
O -1.78792584 1.29199323 0.00567020
C 0.39305718 -0.31929464 -0.75069934
C 1.77651703 0.13173497 -0.52606306
N -0.35320225 -0.41521630 0.48674533
H -0.01949334 -1.02641031 1.21636591
H -1.78920427 0.29386741 1.78014928
H 0.41476231 -1.28172618 -1.27073685
H -0.13121269 0.40617285 -1.37819946
