10

N 0.8033473 -0.16011883 1.6786612
C -0.38014176 0.1396461 1.3650069
O -0.7925357 0.20998052 0.08820482
C 0.21688119 -0.08558454 -0.87226284
C -0.38581258 0.039589997 -2.2019863
N -0.8168529 0.12566291 -3.2716203
H 0.9191337 -0.1564615 2.6892674
H -1.2184806 0.37927797 2.0247788
H 0.5985674 -1.1011297 -0.7260096
H 1.0558939 0.609137 -0.7740406
