11

C -0.4382647 -1.3814396 -0.56851393
C -0.5148206 0.0143778315 0.035927933
C 0.8410934 0.6451309 0.22650136
O 1.8975706 0.1448385 -0.053348146
C 0.81054276 2.0107985 0.81890774
N 0.78036547 3.068117 1.2803153
H 0.049121883 -1.3593127 -1.5474339
H -1.444858 -1.7904903 -0.69011617
H 0.13660443 -2.056239 0.07218145
H -1.0121071 0.0077025075 1.0148035
H -1.1052479 0.6965163 -0.5892252
