11

C -0.18894579 -0.04991594 2.25063039
N -0.03402243 -0.02378944 -0.01602713
C -0.69420658 -1.11954531 0.39077210
N -0.81275856 -1.18149177 1.69301403
C 0.36883160 0.44525824 -1.32152131
N 0.26701054 0.61283507 1.16613148
H 0.76828940 1.48647843 1.14534981
H -0.02857971 1.44785024 -1.50493119
H -0.03523947 -0.23689394 -2.07272756
H -1.06970993 -1.83985001 -0.32742527
H 1.45933078 0.45906438 -1.40326542
