10

C -0.45302595 1.09272887 -0.90323317
C -0.64902247 -0.30310354 -0.36888238
N 0.82674829 -0.39871579 -0.67335975
N 0.81811516 1.02164526 -1.08127445
C -0.27076820 -0.53706753 1.07544450
C 1.02828551 -0.52449255 0.75279891
H -1.11145425 1.91951758 -1.14336620
H -1.32355703 -0.99211637 -0.88080936
H -0.85248026 -0.70943358 1.96954162
H 1.98715926 -0.56896239 1.25314046
