10

C -0.22454174 0.974533 -0.36712316
C -0.6290671 -0.03878322 -1.2348934
N -0.45481429 -1.3351299 -0.9899369
N 0.13210645 -1.710444 0.13669823
C 0.5411328 -0.78862756 1.003733
C 0.38891143 0.58306473 0.80309546
H -0.38979104 2.0169318 -0.61586744
H -1.1182877 0.1847457 -2.1791532
H 1.0130692 -1.1813037 1.9012127
H 0.74128205 1.2950131 1.5422349
