10

C 0.7129171 0.8667923 -0.74766403
C 0.021760555 -0.5705964 1.292219
N 0.2806349 0.75058687 1.1724192
N 1.383824 0.89920276 0.3618587
C -0.6654998 0.26927012 -0.6804269
C -0.91488236 -0.76303595 0.2641699
H 0.7957339 -1.2980195 1.5414135
H -1.4976381 -1.652127 0.045697264
H 1.1893134 1.0927279 -1.69925
H -1.3061638 0.40519884 -1.5504359
