9

O -1.254292 0.03522527 -1.6193631
C -0.51004547 -0.13097385 -0.5149414
N -0.67743784 -1.1470162 0.2869308
O 0.2563187 -0.97894895 1.2978191
C 0.95010036 0.14102305 1.0575602
C 0.5271009 0.74486184 -0.07729348
H -1.881385 -0.7002196 -1.6692706
H 1.7144063 0.38263193 1.7801635
H 0.8752338 1.6534164 -0.54160506
