11

O -1.5607508 0.7402197 0.45521083
C 0.81750846 0.3065275 0.39687878
C -0.5092681 0.4623525 -0.23614705
O 0.6555165 -1.1090213 -0.6504913
C -0.39710388 -0.4844183 -1.3568708
N 0.5839024 0.13067345 1.6784135
H 1.3455145 -0.36807767 2.1338437
H -1.2591165 0.7264333 1.3987981
H 1.7342356 0.7347845 -0.022103027
H -0.104004584 -0.05093291 -2.3240988
H -1.3064338 -1.0885407 -1.473434
