11

O -1.36753887 -0.44668213 1.01546779
C -0.34634323 -0.10065751 0.14827020
C 1.02588002 0.23691445 0.61288742
O 0.19486947 -0.46666750 -2.12267099
C -0.45153142 -0.80747673 -1.16164028
N 0.10213617 1.26793523 0.13945456
H -1.16372580 -1.65402282 -1.18581251
H 0.33541297 1.53899613 -0.81200632
H 1.21372868 0.24605694 1.68558308
H -1.40110570 0.23088940 1.70189174
H 1.85821766 -0.04528559 -0.02142450
