11

O -1.8750892 -0.0882878 -0.09988364
C -0.62463105 0.49822664 0.0845128
C 0.27478167 0.0736213 1.2634112
O 1.3692733 -0.18197472 0.33673123
C 0.5394437 0.000274935 -0.74172187
N 0.6968756 -0.2627767 -1.9573032
H -1.7522099 -0.9469911 -0.5247368
H -0.7483004 1.5832925 0.023796365
H 0.5490788 0.83577734 1.9956334
H -0.049116272 -0.8501174 1.7517537
H 1.6198937 -0.66104513 -2.132193
