10

N -0.90857387 0.5521785 -0.7749658
C -0.40183574 0.17720498 0.3716852
N -1.1056466 0.3118535 1.5487219
O 0.0030007807 0.24559084 -1.7517791
C 1.0718542 -0.3732062 -1.108567
C 0.95496887 -0.36459273 0.30424234
H 0.783138 -1.4615749 -0.7911395
H -1.8387893 1.0075872 1.5424881
H -0.52857417 0.32274607 2.3739784
H 1.9704579 -0.41778728 -1.7146645
