10

N -0.32396507 -1.0027566 -1.5088491
C -0.07594792 -0.4419873 -0.2669484
N -0.03639638 -1.173916 0.81689036
O 0.31382012 -0.30432594 1.8407156
C 0.45540938 0.9228211 1.3353962
C 0.22700243 0.93024874 0.0027144817
H -0.8859051 -0.42648977 -2.1185126
H -0.6772531 -1.9479841 -1.450333
H 0.72501504 1.6929662 2.0434346
H 0.27822056 1.7514238 -0.6945084
