12

C -0.5204786 0.116213605 0.3163262
C 1.1429222 -0.8319353 -1.0636863
C 0.025926363 1.3399153 0.30876932
O -0.050633036 -0.9810365 -0.3186831
N -1.712683 -0.21496966 0.9609096
H 1.0100847 -0.120205365 -1.8867497
H 1.969935 -0.49771696 -0.426803
H -1.7138911 -1.1616358 1.3132855
H -0.4323924 2.1356552 0.88124675
H 1.3671641 -1.8192962 -1.4689264
H -1.9895818 0.45713672 1.6614381
H 0.90362734 1.577875 -0.27712697
