12

C 1.17510366 -1.28681127 -0.30506405
C -0.49707524 0.36287267 -0.07553478
C 0.23057661 1.13220777 0.74587111
O -0.11785533 -0.81149290 -0.62780937
N -1.77489555 0.68259667 -0.53539702
H 1.28660091 -1.43315159 0.77541051
H 1.25253259 0.89325945 1.00810756
H -0.19572776 2.04279466 1.14597682
H 1.27796932 -2.24376847 -0.81793546
H 1.95050812 -0.59719148 -0.65835023
H -2.35410767 -0.13357800 -0.67221531
H -2.23363032 1.39226257 0.01694059
