10

C 0.91210395 -0.23697136 -0.970739
C -0.45844176 0.18974026 1.2525002
O -1.2054206 0.32018197 -1.0428946
C -0.2474689 0.07839037 -0.21814702
H -0.1934002 0.30548787 -1.8019754
H -0.5737718 -0.8160698 1.6682419
H 0.80516106 -1.1715862 -1.5264597
H -1.3598585 0.76919264 1.4701673
H 1.9087448 -0.087800965 -0.5594077
H 0.41235203 0.64943516 1.7287141
