11

C 0.5966113 0.7337597 2.241659
C 0.30543146 0.16650519 0.9292916
C 0.074498706 -0.31538108 -0.14995086
C -0.14756614 -0.96987313 -1.4432831
O 0.32570028 -2.0542767 -1.7152873
N -0.93854296 -0.2645445 -2.297669
H 0.4613133 -0.019728849 3.0240934
H -0.061720606 1.5796444 2.4646475
H 1.6316724 1.0836505 2.285115
H -1.0338624 -0.6230171 -3.2376761
H -1.2135352 0.6832618 -2.1009395
