10

C 0.798376 -0.31498724 -0.62931794
C 0.52342254 0.9266392 0.0044597406
N 0.69938517 -0.28127417 0.85840535
C -0.6682412 -0.7134303 1.1170304
N -1.4823084 -0.4293413 0.18891592
C -0.5932812 0.24936536 -0.75422585
H -0.99822116 0.6298298 -1.685197
H -0.90332043 -1.2252525 2.0444298
H 1.5956813 -0.7204599 -1.2353791
H 1.0285074 1.8789109 0.09087848
