10

O -1.2176313 -0.018562168 -1.9341501
C 1.0236666 0.14264253 0.9285368
C -0.6873417 0.010320312 -0.7896492
N 0.59529865 0.08903129 -0.4615124
C -1.9720298 0.05841246 -0.25869113
H 0.12959026 0.25844398 1.5490284
H 1.675838 1.006157 1.0911078
H 1.5472387 -0.7724751 1.2219323
H 1.2606815 0.19262537 -1.2139318
H -2.3553114 -0.9665957 -0.13267088
