10

O 1.2660472 -0.47138312 2.2902796
C -0.14482895 -0.5557679 0.24202484
C 0.59010845 -0.5075211 1.3413291
O 0.37223834 1.7731578 -0.16402176
C -0.4608759 0.6932394 -0.53243715
O -0.76656175 -1.7608936 -0.06985886
H -0.39920765 0.4601162 -1.6076686
H 1.2741667 1.5489385 -0.41955754
H -1.4849389 1.0190165 -0.32632592
H -0.24614754 -2.198903 -0.75376374
