10

O 1.3187519 -0.9126145 0.4917083
C 0.40532067 0.1366039 0.36544544
C 0.008378751 0.44470176 -1.07858
O -1.3891664 0.18154867 -0.76274395
C -1.0840831 -0.20701204 0.50497246
O -1.8077575 -0.6525879 1.3375193
H 1.3274229 -1.200939 1.41176
H 0.6815047 1.0241863 0.95209754
H 0.39113152 -0.28210348 -1.7946911
H 0.14849652 1.4682165 -1.4274877
