10

O 0.345604 1.2278781 1.2900653
C 0.86482525 0.25198203 0.40995964
C -0.19142708 -0.27183428 -0.52919894
O -2.3121026 0.9736047 -0.89842963
C -1.3099382 0.403165 -0.7356244
O 0.08107338 -1.3686789 -1.3329496
H 1.6624689 0.74623036 -0.15387246
H -0.3157417 0.80953467 1.8531348
H 1.3153731 -0.6028407 0.93955255
H -0.14013515 -2.169041 -0.8426373
