10

O -0.04396777 -1.25954669 1.85518012
C -0.02590135 -0.44885128 0.79087120
C 0.04249813 0.61814397 -1.16735823
C 0.10612095 -0.71362304 -0.51406471
N -0.13479482 1.57335557 -0.06280932
N -0.16913156 0.95008786 1.01872737
H -0.15785551 -0.70415608 2.63952523
H 0.95129965 0.90698145 -1.70888559
H 0.23093009 -1.67383330 -0.99326439
H -0.79919788 0.75144138 -1.85792185
