10

O -1.8279767 -1.1754587 -0.5539697
C -0.7206136 -0.52688694 -0.1752765
C 1.0344404 0.7904386 0.22753702
C -0.1971803 0.6337707 -0.5867168
N 1.0750744 -0.4035752 1.0857737
N 0.0834833 -1.1214628 0.8393031
H 1.0428345 1.6694586 0.8835491
H 1.9663066 0.81171393 -0.35019296
H -0.5764321 1.3101473 -1.3389775
H -1.8799366 -1.9881457 -0.031029534
