11

C 0.5142783 -2.1651626 0.09570305
C -0.33100623 0.47191682 -0.19603439
C -0.06670311 -0.9338128 -0.40548742
O 0.3145166 -0.0775072 -1.4005141
C 0.53402746 1.2967231 0.7137473
N -0.62790596 -2.4769015 -0.44371027
H 0.73427427 2.2704122 0.25575545
H 1.4835187 0.79390943 0.9047631
H -1.2446231 -1.5032446 -0.7827573
H 0.0177981 1.4633715 1.6644275
H -1.3281753 0.8602959 -0.40589297
