11

C 1.2981559 0.6373796 0.57419384
C 0.10215153 -0.29199368 0.41249666
C -0.74758965 0.050393254 -0.78385484
O -0.54329026 0.9479965 -1.5560328
C -1.9284961 -0.8331125 -0.97614664
N -2.8445802 -1.5215567 -1.1175458
H 1.9459698 0.6021425 -0.30564544
H 1.8834866 0.34220162 1.449042
H 0.97539145 1.6740716 0.7069091
H -0.5532165 -0.26838076 1.293989
H 0.4120174 -1.3391415 0.30259478
