12

C 1.0308999 0.7484104 1.600142
C -0.6459933 -0.2687792 0.37906682
N 0.47520006 0.30472493 0.33374858
C -0.60400075 -0.5807828 -1.9348857
O -1.2883111 -0.7452023 -0.6947271
H 0.39597267 0.5319893 2.47269
H 0.36104542 -1.0975021 -1.9121125
H -1.2611426 -1.016277 -2.6898854
H -1.240838 -0.45373726 1.2811553
H -0.4302281 0.48008665 -2.1393259
H 2.0038333 0.26876542 1.7489297
H 1.2035627 1.8283037 1.5552038
