12

C -0.3512183 -1.1035784 0.97941846
C -0.25874925 -0.6295499 -0.46869007
N -0.2625763 0.8194831 -0.5845212
C 0.87696713 1.5493141 -0.4943652
O 1.9958602 1.0834204 -0.40601346
H -0.34841105 -2.1964428 1.0264213
H -1.2723067 -0.7443406 1.4532064
H 0.50453734 -0.7271982 1.5486337
H -1.0939548 -1.0167791 -1.0609435
H 0.671617 -0.9825595 -0.9233827
H -1.1434237 1.3103013 -0.53801167
H 0.6816585 2.63793 -0.5317523
