10

O 1.3734112 -0.0031235316 -2.957141
C -0.6207685 0.250415 2.0488052
C 1.1028242 -0.75112635 -2.0612283
N -0.052434646 -0.6191573 -1.266166
O -0.11447356 -0.81826276 2.2983868
C -0.36026365 0.095342286 -0.34053686
C -0.7655638 0.8133893 0.6926892
H -1.035787 0.8961106 2.850502
H -1.2039121 1.7910259 0.5309092
H 1.6769679 -1.654613 -1.7962202
