10

O 0.97975674 -0.51211415 2.17785579
C 0.26254675 -0.88180477 -2.27652449
C -0.47890111 0.00521127 -0.15959939
N -0.46669302 -0.78431094 -1.07533041
O 0.01231930 -0.23302131 -3.25215319
C -0.53468515 0.80089993 0.89452750
C 0.24689332 0.44529916 2.09437730
H 1.03530734 -1.66651783 -2.21973639
H -1.15545479 1.68859987 0.86752368
H 0.09891075 1.13775882 2.94905951
