10

O 1.7121145 -1.7757301 0.8286737
C 1.1523267 -1.4679921 -0.19605927
C 0.19871783 -0.33903322 -0.26180968
N -0.39184183 -0.041873924 -1.3914688
O -1.1916182 1.0279442 -1.1220629
C -1.0672202 1.3594452 0.1777649
C -0.19804914 0.5322544 0.7937607
H 1.3145437 -2.0057378 -1.1487645
H -1.6632148 2.201725 0.49938706
H 0.13424158 0.5089984 1.8205787
