11

O -0.32228082 1.068984 3.0361197
C -0.42254466 0.48870033 -0.48786876
C -0.57940596 0.95546466 1.8988259
C 1.0574311 0.17403017 -0.5553031
N -0.9879215 0.9154765 0.7603731
C 0.7354113 -1.1030746 -0.80069053
N -0.67225397 -0.94600207 -0.8115545
H 1.9572054 0.77173895 -0.59974104
H -0.8195032 1.1358198 -1.2759987
H 1.2669531 -2.0151796 -1.0535839
H -1.2130909 -1.4459579 -0.110577844
