11

O -0.51764187 1.30897127 2.91260286
C -0.62247622 1.18075119 1.75285869
C -0.22379978 0.53658345 -0.56336471
C 1.13961976 -0.09842928 -0.38521045
N -0.74132238 -0.82649415 -0.87909878
C 0.57659893 -1.28713970 -0.63993269
N -0.85621781 1.15721180 0.56568998
H 2.14781245 0.28340874 -0.30414552
H -0.34261145 1.20223646 -1.42375901
H 0.91908829 -2.30802968 -0.77745346
H -1.47904994 -1.14907009 -0.25818695
