12

N -1.5245216 -1.0987461 -1.3439846
C -0.6195653 -0.45271257 -0.5523972
N -0.69087315 -0.69727015 0.7657308
C 0.22102915 -0.089065835 1.5132592
C 1.194296 0.7564451 0.99707437
C 1.155846 0.93668276 -0.3818542
N 0.26346624 0.3487956 -1.1700209
H -1.6471149 -0.74908394 -2.2799268
H -2.3232625 -1.4998707 -0.8788488
H 0.16665407 -0.28635007 2.5833704
H 1.9301 1.2429626 1.6250882
H 1.8739461 1.5882133 -0.8774907
