10

O -1.7669796 -1.1070899 1.2132764
C -0.8771527 -0.5486097 0.6018168
N -0.8663914 -0.13747267 -0.7225001
C 0.34485984 0.46497455 -1.0512108
C 1.1128944 0.44731188 0.052052945
N 0.37403494 -0.16854192 1.0589566
H -1.6504637 -0.28225625 -1.333151
H 0.54660714 0.8498822 -2.0383964
H 2.113364 0.81650054 0.2146417
H 0.6692267 -0.33469853 2.0045137
