10

O 0.14805447 -2.412955 0.6530367
C 0.5271739 0.989547 -0.46538842
N -0.6267026 -0.32993183 1.2453064
C -0.112419516 0.75927365 0.86475796
C -0.639057 -1.5182989 0.4944945
N 0.4395503 0.10803306 -1.3729458
H -0.14145197 1.6133778 1.5478708
H 1.0315745 1.9556551 -0.58145547
H -1.5319979 -1.5767998 -0.15612791
H 0.9052759 0.4120988 -2.2295487
