10

O -1.7680472 -1.1083143 1.2133332
C -0.8779223 -0.5499155 0.60256255
N -0.8656593 -0.1384939 -0.7220057
C 0.34439433 0.46595672 -1.0514565
C 1.1138338 0.44880664 0.051326428
N 0.37367475 -0.16839823 1.0594299
H -1.6506563 -0.28196692 -1.3328147
H 0.54579085 0.85129356 -2.0388927
H 2.1142068 0.815245 0.21276666
H 0.6703846 -0.33421296 2.0057511
