17

C -2.19487 0.05047853 -0.9130293
N -0.22613032 -1.3491201 0.42328548
C 1.4686735 1.7769194 -0.0015379566
O 1.226606 0.41670692 0.3072122
N -0.9434335 0.6527604 -0.50472486
C 0.013923872 -0.14957286 0.07959047
C 0.83485866 -2.0590193 1.0986742
H 1.4347137 1.960417 -1.0835679
H -2.6495697 -0.4322674 -0.046275903
H 1.0865283 -1.6118832 2.069967
H 1.7576963 -2.099963 0.5046689
H 0.7605704 2.4386435 0.5112476
H 0.4950686 -3.0827723 1.2765187
H -0.61247987 1.3842489 -1.109456
H 2.4791815 1.9775642 0.3554787
H -2.0689576 -0.7096544 -1.6928532
H -2.8623798 0.83651376 -1.2751986
