17

C -2.4999084 -0.0018394421 -0.7827463
N -1.2282757 0.57488513 -0.397274
C -0.15556942 -0.22646503 -0.11682268
O -0.19292021 -1.468937 -0.3815764
N 0.96193093 0.19879375 0.39926282
C 1.2781787 1.5831528 0.6360156
C 1.6923554 -1.7433739 0.23655006
H -1.2524793 1.4563243 0.08812451
H 1.025361 2.2255328 -0.22090329
H 2.3590484 1.674147 0.8014389
H 0.7828064 1.9888896 1.5323884
H 1.5588582 -2.5815256 -0.44454855
H -3.1146302 0.7690763 -1.2513301
H 2.6342118 -1.2301526 0.06483594
H -3.0482562 -0.42977265 0.06631079
H -2.3140788 -0.8005323 -1.5042853
H 1.5133674 -1.9882033 1.2745596
