13

C 0.5845089 -1.5851637 -1.1671609
N 0.22940727 -0.64219034 -0.1274203
C -0.053431187 0.66088945 -0.38035586
O -0.074144244 1.1698052 -1.4846011
C -0.33519265 1.4769691 0.8804283
O -0.5623178 0.6918429 2.0365057
H -0.112116 -2.4297884 -1.18345
H 0.5320507 -1.0582412 -2.120808
H 1.6020184 -1.9627098 -1.0253627
H 0.26659924 -0.91335434 0.8440219
H -1.1674036 2.1570354 0.65843636
H 0.54801464 2.0925088 1.0813189
H -1.4579939 0.34239727 1.9884475
