10

O 0.82047385 0.9356761 -1.7102332
C -0.017205227 0.8152106 -0.60564786
C 0.20876437 -0.48812798 0.12148796
O 1.0240666 -1.2987897 -0.25915593
C -0.6175719 -0.78994465 1.3648623
O -1.4449748 -0.027223334 1.7904319
H 1.3493632 0.12565143 -1.7487447
H 0.13952342 1.6359639 0.11147739
H -1.0779499 0.85891545 -0.89740276
H -0.3844897 -1.767332 1.8329248
