10

O 1.252112 -1.3842207 0.9895677
C 0.36056456 -0.94744396 0.013310898
C -0.01836689 0.49839008 0.2222835
O 0.41939628 1.1502626 1.1457278
C -0.981591 1.1481427 -0.75707304
O -1.448843 0.5558261 -1.6941439
H 1.403631 -0.6395715 1.5882313
H 0.78608906 -1.0476578 -0.9958341
H -0.5661257 -1.5416666 0.013657712
H -1.2068663 2.207939 -0.5257278
