10

O 1.68382084 -0.94485391 1.08942598
C 0.89431200 -0.31469324 0.16931217
C -0.56169837 -0.27476348 0.22286804
O 0.08832648 -1.13017484 -0.67487382
C -0.70667293 1.57526211 -1.15375707
O -1.33668212 0.77605865 -0.33310847
H 1.20015961 -1.69178987 1.46680817
H 1.42022213 0.48473609 -0.33719839
H -1.15763188 -0.75285924 1.00189695
H -1.52415575 2.27307765 -1.45137349
