13

C 0.5859477 -1.5858326 -1.1661929
N 0.23099864 -0.6419283 -0.12521628
C -0.0526926 0.6590416 -0.37991342
O -0.07501547 1.1670873 -1.4843881
C -0.33612293 1.4787629 0.8788815
O -0.56721866 0.6954636 2.0364087
H -0.11259531 -2.4279175 -1.1826556
H 0.53494406 -1.0570427 -2.1197138
H 1.6014652 -1.9656436 -1.0217034
H 0.26877046 -0.91132236 0.8469429
H -1.1653754 2.1592762 0.6498675
H 0.5502785 2.0889766 1.0829504
H -1.4633843 0.34107846 1.9847322
