11

C -0.84150494 -0.98775197 0.50450590
N -0.43809078 -0.78369212 -0.78845122
C 0.52159464 0.25771992 -0.48002759
O 0.19849559 1.45489508 -1.13000747
C 0.09440765 0.12519812 1.00310176
O -1.61912267 -1.76116768 0.99823401
H 0.83021718 2.12684965 -0.84634131
H -0.72537375 -1.20396144 -1.66149522
H -0.44063673 1.00352528 1.37296396
H 0.85952206 -0.19521250 1.71245887
H 1.56049172 -0.03640238 -0.68494154
