11

C -1.4739697 0.79391384 -0.44837078
N -0.47789422 -0.08638725 0.12785724
C 0.8407076 0.026933076 -0.12500913
O 1.3876534 0.84437394 -0.8423015
C 1.6760123 -1.0247281 0.60809594
O 1.1933093 -1.8613737 1.3267941
H -0.9496825 1.5151772 -1.0764899
H -2.1822362 0.23007596 -1.0633093
H -2.0202632 1.3285588 0.3344557
H -0.7532429 -0.8324135 0.7504908
H 2.7596061 -0.9341303 0.40778697
