11

C -0.29538777 0.75680315 0.6089298
N -0.3453361 -1.0932174 -0.3367061
C 0.72997296 -0.14543492 -0.12204575
O 1.2403004 0.3275027 -1.3369495
C -1.3009253 -0.37162316 0.32832965
O -2.4569192 -0.59274954 0.5761398
H 1.5320091 -0.53835344 0.51838994
H 1.9084678 0.9948699 -1.1388714
H -0.38269025 -1.97686 -0.82572967
H -0.110877536 0.9617869 1.6649545
H -0.51861435 1.6772755 0.063558646
