11

C -1.0401485 -0.16714379 0.3301541
N 1.091583 -0.40391198 -0.11681619
C 0.36412367 0.64157265 -0.7874069
O -1.5761932 0.78480107 1.0451528
C 0.19869107 -0.9694776 0.75107723
O 0.306179 -1.824535 1.5900888
H 2.0938456 -0.5354813 -0.08321336
H -1.690198 -0.7093716 -0.38105085
H 0.09674949 0.4468284 -1.8305352
H -0.6857016 1.1102961 0.16247584
H 0.8410693 1.626423 -0.67992616
