11

O 0.79175264 -0.8054365 -0.611931
C -0.16927251 -0.018099183 -0.21181792
O -1.6711452 1.1162618 0.5439244
C -0.34544984 0.8829825 0.89016414
C 1.9689562 -0.8916261 -0.08642762
C -1.5976405 0.18811297 -0.5769564
O 0.2751046 1.3397367 1.8124435
H -2.282235 -0.6515309 -0.42933777
H -1.8073797 0.69927174 -1.5199347
H 2.6320758 -1.5827553 -0.5844135
H 2.2052336 -0.27691782 0.77428687
