11

O 0.16826291 -0.72894675 -1.1674435
C 1.4879256 -0.7060017 -1.1447703
O 0.7116467 2.1442597 0.18030553
C -1.3914759 -0.2202767 0.83136505
C -0.11242344 -0.19467086 0.048992902
C 0.010077059 1.2067784 0.4222893
O -1.103477 1.1431136 1.2422904
H 2.0105882 -1.1057323 -0.28909352
H 1.9811401 -0.38151804 -2.0533535
H -1.4523427 -0.8895559 1.6934277
H -2.309922 -0.26744923 0.23598978
