11

O -1.04378038 1.77266932 -0.32060327
C -1.36219825 0.48026133 -0.91350172
O 0.37996420 -1.22615817 -0.04714968
C 1.40513291 -1.49144201 0.69315043
C -0.15927002 -0.04940125 -0.21456975
C 0.05484561 1.25078303 0.35202220
O 0.80324376 1.81332849 1.10551689
H 1.71622796 -2.52498338 0.67342181
H -2.33954999 0.12845648 -0.57221059
H -1.32771627 0.53349746 -2.00458321
H 1.87310008 -0.68701154 1.24850712
