11

N -0.9878583 -1.7676433 -0.19812165
C 0.94428474 1.1585076 0.4390194
C -0.3848995 -0.5182334 -0.0914697
C 0.84108776 -0.20853814 0.5526177
N -0.97975844 0.56462765 -0.56575936
N -0.15509135 1.5740149 -0.22273496
H 1.7002347 1.8500645 0.7806693
H -1.7545521 -1.7601603 -0.85734075
H 1.5275002 -0.8891799 1.0340221
H -0.41054073 2.51383 -0.47431463
H -0.34040686 -2.5172899 -0.3965877
