12

C 0.55707425 -0.6480674 -1.8506258
C -0.080457 -0.7423485 -0.4802425
O -0.60418004 -1.7480689 -0.0524365
N 0.0078101507 0.42070666 0.26963416
C -0.47537142 0.5394159 1.5643809
N -0.3437919 1.6427624 2.178636
H 0.13403413 -1.4258547 -2.4853125
H 0.40328118 0.33363363 -2.3111742
H 1.6366774 -0.81919587 -1.7586843
H 0.44702893 1.2444484 -0.118884884
H -0.9404505 -0.3754744 1.9340917
H -0.74165523 1.5780425 3.1106172
