12

C 0.41143155 -2.0147357 -0.2525003
C -0.4309108 -0.8379956 0.0071487534
O -1.3573407 -0.84037465 0.87489927
N 0.5683788 2.6232123 0.17369477
C -0.11193074 1.5661663 0.37061357
N 0.3213065 0.37084013 -0.15326507
H -0.87358326 -1.1489792 -1.0573221
H 0.25917083 -2.901828 0.35757354
H 0.94943625 -2.0989468 -1.1916008
H 1.1951733 0.38899875 -0.65891045
H -1.0476465 1.4751405 0.9207769
H 0.11651496 3.4185026 0.608892
