12

N -1.49615 1.1473602 -0.2921582
C -1.1201118 0.026933564 0.3249443
N -0.14761014 0.06090297 1.3097972
C 0.8718856 -0.3117682 0.5828373
O 2.127293 -0.35118878 1.0294975
C 0.5123116 -0.56168854 -0.802725
N -0.87654305 -0.95546365 -0.61616325
H -0.27112296 0.9428915 -0.9411866
H 2.1236703 0.0012939735 1.931183
H -1.4213537 1.9405032 0.34268227
H -1.4593897 -0.7784934 -1.4254011
H 1.157121 -1.161283 -1.4433074
