12

N -1.09715443 0.20204760 0.41080123
C -0.65253712 -0.77769661 -0.26642217
N 0.02793845 2.20775969 1.16342773
C 0.02714248 1.04578625 0.65410558
O -1.37512848 -1.79002057 -0.72980282
C 0.82729782 -0.76220540 -0.55477710
N 1.18330912 0.39405732 0.23708567
H -0.92268285 2.46899966 1.40879124
H -2.29515970 -1.63212652 -0.46555612
H 1.96625287 0.97509960 -0.00721919
H 1.30869295 -1.68606243 -0.21797645
H 1.00202866 -0.64563832 -1.63245772
