12

C 0.4541164 -0.1150761 -0.23638453
N 0.7052752 1.0869272 0.3671982
C -1.6914084 -0.35851932 0.6112219
N -0.58105123 -0.85869616 -0.17848647
C 1.5955956 -0.63896847 -1.0474302
O 2.6122403 -0.009845452 -1.2245688
H -0.06611858 1.6656796 0.65739626
H 1.5442134 1.5560175 0.051332407
H -2.506434 -1.0843086 0.59000206
H 1.4143159 -1.643407 -1.4693371
H -1.4015708 -0.19471222 1.6593462
H -2.0791738 0.5949089 0.2197102
