11

O 0.44335028 -2.33230694 -1.63303926
C 0.18496351 -0.42839448 -0.25044136
C -0.42189737 1.48141364 0.96871077
O -0.76922405 0.46971737 0.01580036
C -0.27757651 -1.43580606 -1.26661865
N 1.33048721 -0.43292863 0.28819918
H 0.42635378 2.06761212 0.60520821
H 1.85553026 -1.22499844 -0.08197756
H -0.15537179 1.02593856 1.92645939
H -1.30911276 2.10403713 1.07013230
H -1.30750252 -1.29428427 -1.64243312
