11

C -0.77530736 0.8781 1.5448539
N 0.5852401 0.51533455 1.1802595
C 0.83577263 -0.055577785 0.09636906
O -0.14358638 -0.3903375 -0.8391477
C 0.2526122 -1.0253298 -1.966713
O 1.377498 -1.3346099 -2.2396967
H -0.7883686 1.9522902 1.7507755
H -1.0189251 0.3633447 2.4783113
H -1.5375059 0.6441859 0.79344934
H 1.8423053 -0.33141914 -0.204203
H -0.6297351 -1.2159811 -2.594258
