11

C -0.73609789 -0.01945783 0.86078879
N -1.33901579 -1.13222165 -1.25912469
C 1.28378407 0.64858022 0.16127209
O 0.56226524 0.32128608 1.30998160
C -0.50646947 -0.51077926 -0.55203993
O 0.75753998 -0.14023614 -0.90222666
H 1.16849712 1.70954196 -0.10235336
H -1.15123553 -0.79421054 1.50688751
H -1.40655481 0.85131326 0.85258304
H 2.33416220 0.39367752 0.30996308
H -0.96687534 -1.32749350 -2.18573127
