10

O 0.3252402 1.5427033 -0.064465106
C -0.6891522 0.5957717 0.34700397
C 0.7054712 -0.9625043 -0.13724019
C 0.504613 -0.028252495 1.0737382
O -1.456639 -0.9772937 -1.4431857
C -0.640217 -0.494583 -0.71245265
H 0.54086745 2.0704818 0.7291624
H 1.6171311 -0.77514327 -0.71076375
H -1.5981963 1.0440521 0.747474
H 0.6908816 -2.015232 0.17072853
