10

O -1.6858705 -0.5960439 -1.5271049
C -0.8042019 -0.26970357 -0.77826136
C -0.37482947 -0.6198675 0.66142416
C 0.77067864 0.40135342 0.44282535
N 0.24165018 0.6071017 -0.89966726
H -1.1089668 -0.34968457 1.4228888
H -0.06276685 -1.6575787 0.79321766
H 0.72563964 1.2901045 1.0793831
H 1.7805878 -0.01980549 0.46387607
H 0.51807916 1.214124 -1.6585819
