10

O 1.740037 0.4992385 1.1136491
C 0.56803817 0.18985952 0.5523791
C -1.1528847 -0.25806773 -0.23815198
C 0.24721968 -0.080041125 -0.8823136
N -0.5784295 0.044277094 1.1038302
H 0.36171058 0.7655262 -1.5638925
H 0.69929403 -0.97941685 -1.3088297
H 1.5894266 0.6126215 2.0640297
H -1.9051002 0.47343254 -0.54606014
H -1.5693113 -1.2674296 -0.29464036
