10

O -0.78677475 0.26379716 -2.0765574
C -0.25109643 0.16225524 -0.92365086
C -0.012100896 -0.373678 1.0115396
C 0.8433468 0.5224026 0.06298437
N -0.9420655 -0.6022368 -0.12785615
H 0.48008528 -1.2864797 1.3596767
H -0.47319636 0.15246151 1.8523172
H 0.899461 1.5809561 0.32527578
H 1.8333586 0.13392603 -0.1850003
H -1.5910178 -0.5534042 -1.2987293
