10

O 0.48167913 2.02927288 -0.40892400
C 0.29549481 -0.50505861 -0.70964783
C -0.42835425 -0.96343936 0.58374289
C 0.11645870 0.80625588 -0.01501529
N -0.47882434 0.44806879 1.06063372
H -1.42375668 -1.39108494 0.43534649
H 0.15839511 -1.60563331 1.24610650
H 0.20773278 2.65337766 0.27970442
H 1.32865368 -0.84200928 -0.82885729
H -0.25747905 -0.62974980 -1.64308990
