10

O 0.026710737 0.32401046 2.0202584
C -0.0229424 0.12170661 0.6904499
C 0.8907159 -0.28681973 -0.25705338
C 0.14268836 -0.2799314 -1.459164
N -1.1123192 0.09687963 -1.2776574
N -1.1909643 0.33827782 0.050521124
H 0.9165842 0.12763685 2.335836
H 1.927668 -0.548741 -0.10723255
H 0.48122668 -0.5385352 -2.4536784
H -2.059368 0.645516 0.45772025
