12

O -0.5422229 0.6169814 -1.6984851
C 0.18890259 1.1726351 -0.6323769
C 0.36369416 0.16331126 0.48815122
C -0.7133258 -0.7884194 0.83407575
N 0.42314422 -1.2203871 0.017792111
H -0.23887908 -0.30170906 -1.7655774
H -0.36235216 2.048689 -0.27195436
H 1.1824365 1.5139779 -0.96331745
H 1.0457425 0.45636308 1.2834932
H -1.6565843 -0.73724043 0.3005466
H -0.774535 -1.1465254 1.8597052
H 1.0839794 -1.7776761 0.5479474
