11

O -1.3446459 0.7929672 0.5050216
C -0.3977435 0.745241 -0.43474558
N 0.03144538 -1.1862051 0.35736248
C 0.89649427 1.2311984 -0.075550884
C 0.15893736 0.15372288 0.8846985
C -0.37371328 -0.69358873 -0.9951803
H 0.28723174 0.37698486 1.9331298
H 0.9426803 -1.6351082 0.33487502
H 0.37927985 -0.86213386 -1.765325
H 0.778947 2.1374428 0.5398736
H -1.3589131 -1.0605212 -1.2841594
