10

C -1.0827041 0.24639733 -0.25122955
C -0.31793916 -0.596917 -1.051646
N 0.94891584 -0.8907147 -0.7645986
C 1.443947 -0.32766443 0.3379613
N 0.8120362 0.49147016 1.1755486
C -0.45516172 0.77202636 0.86902595
H -2.1138904 0.47946858 -0.49140537
H -0.7325609 -1.0506082 -1.9494836
H 2.478478 -0.56385577 0.57898253
H -0.9811203 1.4403975 1.546845
