10

C -0.94499473 0.00098498 -0.04201386
C -0.23446768 -0.60202583 -1.21598037
N 1.01164076 -0.66389356 -0.95824356
C 1.07073485 -0.09256546 0.38558060
N -0.15776163 -0.41971658 1.15859420
C 0.02158630 0.92344325 0.61756808
H -2.01860898 0.08072505 0.08098882
H -0.67958934 -0.94092541 -2.14578564
H 2.01089951 -0.11863454 0.92586829
H -0.07943862 1.83260793 1.19342370
