10

C -0.0890878 0.6498171 -0.6816028
C 0.9615831 -0.39611408 -0.90247995
N -1.2394071 -0.068790145 -0.050290972
C -0.3331792 0.70999056 0.7870888
N 0.86985415 -1.27496 0.015266077
C -0.24585405 -0.76603234 0.81022465
H 1.6936057 -0.42837855 -1.7028711
H -0.33143517 1.4622416 -1.3564138
H -0.63876206 -1.3779539 1.6150074
H -0.64731765 1.4901799 1.4660717
