10

C 0.8908771 1.0172751 -0.45998433
C 0.44060165 -1.1821219 -0.19092695
N -0.27913764 1.3298397 0.115492165
C -1.1791327 0.3918836 0.5772593
N 1.2814528 -0.22543992 -0.6245721
C -0.7842379 -0.94192195 0.40643013
H 0.7910339 -2.2028277 -0.34153026
H -1.4172745 -1.7602532 0.73193145
H -1.2744167 1.7434527 0.5811457
H 1.5302336 1.8301136 -0.7952452
