10

C -1.23777671 0.40683189 -0.10166825
C 0.45354391 -0.81081333 -0.92689681
N -0.77743530 -0.43551070 -1.06979530
C 0.89275736 0.43079110 1.13189330
N 1.23816968 -0.40719457 0.10425483
C -0.47474960 0.83522052 0.94981627
H -2.27310232 0.71953022 -0.22848085
H 0.90244919 -1.48174501 -1.65689345
H 2.18630344 -0.76452248 0.11489877
H -0.91015939 1.50741202 1.68287176
