11

N -0.630459 -0.71390605 -1.9401275
C -0.3237958 -0.2798386 -0.79996794
C 0.70722497 -0.8759413 0.1347033
O 0.43642938 -0.24467562 1.3717586
C -0.13083524 0.99016595 1.0468291
O -0.8471112 0.8110589 -0.17103143
H -1.3323087 -0.12419955 -2.3833652
H 0.5894435 -1.9547813 0.24182597
H 1.7213376 -0.6515338 -0.22561616
H -0.8285873 1.2844046 1.832021
H 0.6386617 1.7592466 0.8929704
