11

N -1.6044447 0.27545887 1.4397814
C -0.20027491 -0.85815114 -0.13862596
C 1.1099494 0.5894763 -1.4348633
O 0.2075315 1.3740377 -1.5514988
C -0.4195962 -0.0043282467 1.0840572
O 1.05285 -0.5691468 -0.76041055
H -1.5929521 0.81626993 2.303198
H 0.49453992 0.29973716 1.6135827
H -0.13417661 -1.9106343 0.15014537
H -1.0264968 -0.71339685 -0.83827096
H 2.1130707 0.7006776 -1.8670954
