11

N -1.91153471 0.76500072 0.69562920
C 1.53824282 0.05201309 -1.12667925
C -0.24722252 -0.85205993 0.09287382
O 1.15680125 -0.80314823 -0.16555710
C -0.71411047 0.37197003 0.83841777
O 0.80357780 0.75443106 -1.76728427
H -0.81258672 -0.95155357 -0.83640756
H -0.38753607 -1.74118351 0.71355895
H 2.62951795 0.00092299 -1.23600013
H -2.09019824 1.56993284 1.29417789
H 0.03504881 0.83367435 1.49727084
