9

O 1.0044849 -0.9471053 -1.5001678
C 0.3103686 -0.35072696 -0.52068
C -0.9410323 -0.6223376 -0.078559555
O -1.1972162 0.26707646 0.9394894
C -0.08954348 1.0045749 1.0377702
N 0.848012 0.69358534 0.20075355
H 1.8610339 -0.5002789 -1.5442265
H -1.7205085 -1.3232169 -0.32659745
H -0.07559886 1.7784288 1.7922183
