9

O 0.6340603 0.4383937 1.6269588
C -1.2382132 0.08082288 0.082860775
N -0.120926484 -0.5504525 -1.6717336
N -1.3046522 -0.332651 -1.2103809
N 0.74529696 -0.28170672 -0.66188455
C 0.08517734 0.11562529 0.4447884
H -2.111523 0.3285282 0.66538596
H 1.577848 0.6181266 1.5398089
H 1.7329324 -0.41668642 -0.8158037
