9

O 0.481181 -0.22496632 1.8129057
C -1.1091871 0.31472588 0.032701742
N 0.23072766 0.23680279 -1.6544199
N -1.0240821 0.3822272 -1.2963781
N 1.0249722 -0.021622349 -0.47204125
C 0.1522023 0.004340712 0.53477925
H 1.4400727 -0.3414486 1.8618935
H -2.0345168 0.47023872 0.57013166
H 0.83863 -0.820298 -1.3895723
