9

O 0.96639572 -0.38530075 1.46929883
C -0.67169621 1.00642315 0.28724000
N -0.75113689 -0.07935524 -1.59430566
N -1.22673135 0.93155881 -0.95138025
N 0.13131903 -0.68884230 -0.76234440
C 0.20768015 -0.03926137 0.41687960
H 0.59886373 -1.52645587 -1.07401707
H -0.91863126 1.78188900 0.99508131
H 1.66393726 -1.00065541 1.21354760
