11

C 0.8459908 0.10921841 0.25742623
C 0.38645038 0.9328236 1.3927197
C 1.5768185 -0.5527393 -0.5426791
C -0.2992835 -0.8808044 -0.45998615
O -0.8487861 -1.6798768 0.25357533
N -0.7928621 -0.42833573 -1.6461085
H -0.018079428 0.28907427 2.1793804
H 1.2402806 1.4847648 1.7959733
H -0.1588823 0.041657828 -2.269865
H -1.5503154 -0.9636484 -2.044025
H -0.38133135 1.6478655 1.0835887
