11

C -1.6192766 -0.6235075 0.08946124
C 0.24935229 -0.3892191 1.7575493
C 0.7505957 0.17106968 -0.5315092
C -0.22727093 -0.26525465 0.54565966
O 0.5711788 -0.1396951 -1.6895795
N 1.8020937 0.91358167 -0.10188843
H -2.193064 -1.0961548 0.88674533
H -1.5306227 -1.3027626 -0.76432526
H -2.1447783 0.27614778 -0.25089192
H 2.4810004 1.2116317 -0.78742963
H 1.8607913 1.2441628 0.8462085
