11

C 0.5962251 0.73193496 2.2431076
C 0.30691046 0.16556142 0.92860615
C 0.07630146 -0.31646603 -0.15168656
C -0.1444923 -0.96884227 -1.4416281
O 0.33013624 -2.050784 -1.7179697
N -0.94286674 -0.26175156 -2.29658
H 0.45889986 -0.022936355 3.0221758
H -0.06007737 1.578499 2.4623437
H 1.6330844 1.0798506 2.2846847
H -1.0377698 -0.6205818 -3.2353272
H -1.2163513 0.6855162 -2.0977259
