11

C 0.14249752 0.38777182 1.0672292
C -0.29173386 0.2316604 2.362659
C 0.7534984 0.19201408 -0.047477067
C 0.17537335 0.20737281 -1.391805
O -0.35419872 1.1952709 -1.867868
N 0.3141029 -0.97740936 -2.0823324
H -0.5983587 1.097456 2.941755
H 0.1319674 -0.91108227 -3.073232
H -0.41668844 -0.7502375 2.8130574
H 1.0198375 -1.6277472 -1.7804358
H -0.87629735 0.9549305 1.0584495
