10

N 0.8100307 0.91076463 0.7060914
C -0.014694631 -1.1614796 0.09023543
C -0.2196004 1.0813535 -0.3112647
C 0.9023486 -0.35359967 0.91013414
C -0.70675457 -0.29381722 -0.66188824
H -1.0166436 1.724708 0.083684646
H 1.6067685 -0.76148474 1.6315224
H -0.09208839 -2.2416136 0.11469913
H -1.4758484 -0.5156663 -1.3911972
H 0.20648219 1.610835 -1.172017
