10

N 0.86045876 0.92321544 0.62569249
C 0.23766671 -1.09509034 -0.31888067
C 1.26137102 -0.26023200 0.32989758
C -0.52723100 1.00076916 0.18687962
C -0.86187547 -0.33364261 -0.41204347
H 0.37628117 -2.11923584 -0.64321037
H -0.63468539 1.82425823 -0.52943796
H 2.27479203 -0.58732771 0.55117776
H -1.16524915 1.25175654 1.04426287
H -1.82152826 -0.60447065 -0.83433790
