10

N -0.31622982 -0.29496345 -0.30320677
C -0.7523359 -1.4932708 0.006343538
O -1.4664361 -1.9117241 -0.9557415
N 0.77933913 1.6970395 -0.008402533
C 0.5034681 0.481363 0.5343127
O 0.89519215 0.10251125 1.618241
H -1.0649921 -0.7131366 -1.3265586
H 1.4426541 2.2774453 0.47794488
H -0.5566669 -2.052262 0.9183927
H 0.536007 1.906998 -0.9613254
