10

N 0.34769814 -0.17620003 0.87721235
C 0.67690219 -1.46627675 0.63732854
O 0.52946906 -2.10263236 -0.42177638
N -0.53537993 1.76374171 0.01629153
C -0.19222224 0.47554339 -0.14549053
O -0.43972038 -0.00509934 -1.33787443
H -0.40175377 2.19054157 0.91510133
H 1.12593529 -1.97617780 1.50271007
H -0.13035660 -0.96224652 -1.30621855
H -0.98057179 2.25880616 -0.73728401
