10

N -0.13466318 0.557351 0.97210556
C 0.8386748 0.143024 -0.97156316
C -0.9205079 -0.41307247 0.34763977
C -0.32663843 -0.6760429 -0.84866786
C 1.0023255 1.0310009 0.07702159
H -0.67538863 -1.409264 -1.566475
H 0.96204036 0.31038526 1.2866386
H 1.5247347 0.10316269 -1.808984
H -1.7844397 -0.8402957 0.83511335
H -0.48613772 1.1937512 1.6771715
