10

N -1.0494846 0.26362994 0.36202738
C -0.6606 -0.96807796 -0.098350435
C 0.66877204 -0.88716507 -0.4374492
C 1.0947187 0.44434458 -0.17017639
C 0.01138441 1.1303829 0.32219553
H -1.9742565 0.49597833 0.6808482
H -1.3579901 -1.7910722 -0.14602704
H 1.2755295 -1.6886963 -0.8348045
H 2.0864205 0.8455091 -0.32482088
H -0.09449412 2.1551666 0.6465573
