9

O 0.29078027 0.44594701 -2.40024863
C -0.02219975 0.27808927 -1.23691626
N 0.89483506 -0.19296797 -0.23295340
N -0.97630283 0.11628698 0.69246573
C 0.25581467 -0.27545062 0.93933690
N -1.21629926 0.46384634 -0.59490034
H 1.85870839 -0.41933753 -0.41660874
H 0.64638365 -0.59134324 1.89365132
H -1.73172019 0.17492969 1.35617336
