11

C -0.43746352 -1.379338 -0.5690686
C -0.51355904 0.015619839 0.03672328
C 0.8415575 0.6468446 0.22636147
O 1.8944666 0.14014162 -0.058751564
C 0.8122792 2.0097432 0.81981355
N 0.7772976 3.0663655 1.2816739
H 0.04755265 -1.3577725 -1.5486804
H -1.4436308 -1.7894078 -0.6883841
H 0.13873018 -2.05463 0.06992324
H -1.009875 0.0055244393 1.016887
H -1.1073554 0.6969092 -0.5864978
