9

O 0.03868891 1.58630081 -1.49106064
C -0.02145487 -0.66135806 -0.12693139
N -0.05660066 -2.54782636 1.69116013
C 0.04558617 1.65722777 -0.29401087
C -0.03999452 -1.70245736 0.90510343
O 0.01378751 0.60461558 0.53922498
H -0.91602340 -0.73791404 -0.75377863
H 0.07680846 2.58301866 0.29544022
H 0.85920215 -0.78160685 -0.76514727
