11

C 0.59409434 0.7328407 2.243911
C 0.30342475 0.16784449 0.927195
C 0.07403965 -0.31285647 -0.15255618
C -0.14379185 -0.96911466 -1.4418457
O 0.32778928 -2.054009 -1.7128466
N -0.93257666 -0.26053765 -2.3010037
H 0.45957932 -0.023869328 3.0221934
H -0.062457588 1.5768358 2.466855
H 1.63058 1.0806863 2.2859073
H -1.0382487 -0.6241021 -3.2346687
H -1.2124327 0.68628186 -2.10314
