11

O -1.42489250 1.01133663 2.38562242
C -0.10644775 0.44961316 -0.90931196
C 0.81249263 -0.70910874 -0.94154786
C -0.77438705 0.95442872 0.13481195
C -0.73917738 0.47815928 1.54144829
N 0.94704810 -1.53976647 0.01475011
H 1.37611602 -0.79050085 -1.88094317
H -0.22846567 0.94675049 -1.86977382
H 1.62865747 -2.25399704 -0.23810168
H -0.07089330 -0.36539938 1.78213778
H -1.42005038 1.81848472 -0.01909200
