10

C 0.69324815 -0.65915823 -0.5523676
C 0.1522494 -0.975285 0.8483345
N -0.46099493 -0.027605778 1.4618422
C -0.54723495 1.0190035 0.59434515
C -0.3131013 0.6836008 -0.7401259
N -0.35322165 -0.6361988 -1.3709842
H 0.06905134 -2.015113 1.1563404
H 1.7269303 -0.88230777 -0.85091573
H -0.26041606 1.463202 -1.498321
H -0.7065102 2.0298624 0.9518523
