11

C -0.83039264 1.36786520 1.27535309
N -0.43839863 0.64019374 0.15900414
C 0.37239917 -0.49496981 0.20804639
O -1.53031842 2.34584606 1.19400382
C 0.65879345 -1.10685163 -1.14392238
O 0.79387064 -0.92592285 1.25595027
H -0.43427090 0.95616475 2.21461559
H 1.27940506 -1.99098171 -1.00636482
H -0.77938716 0.98511039 -0.72882563
H 1.18271568 -0.38896208 -1.78444893
H -0.27441625 -1.38749203 -1.64341159
