11

C -0.77228445 0.88047063 1.5458214
N 0.5847087 0.51820564 1.1799308
C 0.8364589 -0.05369259 0.09800095
O -0.14435135 -0.39025143 -0.8375308
C 0.2518817 -1.0288968 -1.9666883
O 1.3765156 -1.3388703 -2.2431755
H -0.7898897 1.9546223 1.7534819
H -1.0174748 0.36509907 2.478671
H -1.534165 0.64541614 0.79311883
H 1.8395573 -0.33509114 -0.20843682
H -0.6309569 -1.2170115 -2.5931935
