11

C -0.59940606 1.7234725 0.9260063
N -0.04967468 0.7883155 0.05843681
C -0.13869534 -0.5933337 0.23596236
O -0.71720344 -1.0729882 1.182916
C 0.5437717 -1.399045 -0.8453834
O -0.5001918 2.9104772 0.741245
H 0.40816808 -2.4586444 -0.6341309
H 0.11799838 -1.1628451 -1.8262277
H 1.6139461 -1.1668739 -0.87632704
H -1.119158 1.26238 1.7779895
H 0.44044518 1.1690855 -0.7404869
