10

N 0.8567637 0.7679181 -0.6753024
C 1.0236437 -0.017182114 0.52412015
C -0.44898084 0.62891316 -0.98964214
C -1.1422057 -0.11742854 -0.03609047
C -0.21576825 -0.54153925 0.9161028
H -0.82471716 1.0486566 -1.9136828
H -0.40048462 -1.1506369 1.7911783
H 1.9384787 0.09400863 1.0926414
H 1.4130809 -0.36289334 -0.655022
H -2.1998107 -0.34981635 -0.05430307
