10

N 0.46983539 -1.31375772 -0.18849209
C -0.75017757 -1.08812339 0.14512980
C -1.07390523 0.33805855 0.29847173
C 1.10847502 -0.00844447 -0.29341133
C 0.05545510 1.00927151 0.03239209
H -2.04255300 0.73481114 0.57485184
H -1.45497224 -1.90240520 0.29550900
H 1.51816822 0.11627007 -1.30343773
H 1.96246535 0.03240799 0.39427000
H 0.20720877 2.08191120 0.04471653
