10

N -1.0490812 0.26478395 0.36141714
C -0.66130686 -0.96699476 -0.10067617
C 0.66680664 -0.8865023 -0.43870816
C 1.0943325 0.44394585 -0.16955893
C 0.012444946 1.1299225 0.32335985
H -1.9728912 0.49637598 0.68089086
H -1.3586758 -1.7904788 -0.14745955
H 1.2732722 -1.6884542 -0.8345603
H 2.0875173 0.84280586 -0.3229569
H -0.092418715 2.1545956 0.648252
