11

N 0.79365367 1.8498819 0.6203092
C -0.27490872 -0.01043597 0.04231711
C -1.5004165 -0.84606326 -0.08256802
C 1.0292342 -0.21392661 -0.2710334
C 1.6490616 1.0029842 0.12093394
O -0.42642155 1.2137715 0.5734993
H -1.2487696 -1.7991954 -0.55245495
H -1.9389955 -1.0459247 0.8997801
H 2.6929774 1.2834535 0.052692626
H 1.4803792 -1.0908301 -0.7101516
H -2.2557936 -0.3437151 -0.69332427
