11

N 1.8086125 -0.6184485 0.69200444
C -0.2110127 0.68991387 -0.63808477
C 2.0899677 0.48915386 -0.012363218
N -1.7375362 -0.723887 0.65223265
C -0.47274646 -0.31271768 0.29282996
N 1.041281 1.1319413 -0.65121835
N 0.541797 -0.94001436 0.9128573
H -1.7552346 -1.6155692 1.1246897
H 2.1231596 1.3380803 -1.0666407
H -2.4810405 -0.5791859 -0.0102848355
H -0.94724697 1.1407332 -1.2960223
