11

N -0.22232561 -1.65865692 -1.03875267
C -0.23343931 -0.44261462 -0.37736626
C 0.82145898 0.05270521 0.33869116
N -1.45579407 1.49280914 -0.01751988
C -0.46482994 2.08581170 0.76263619
N 0.64123883 1.28138236 0.87562889
N -1.35957005 0.30295242 -0.52866667
H -1.14302033 -1.91531859 -1.36659022
H 0.25411853 -2.41012341 -0.56538316
H 1.76621959 -0.45741232 0.49090929
H 1.39594346 1.66846486 1.42641324
