11

N -1.51589709 0.33279531 -0.91842644
C -1.83895913 1.20378524 -1.63629062
C -1.04418578 -0.67166458 -0.01627406
O -0.32158495 -0.11543037 1.04221742
C 1.81457553 -0.26040477 -0.02495385
C 0.83182150 0.60092792 0.66804042
N 2.55475236 -0.95539787 -0.57106580
H -1.89732561 -1.17899507 0.43394707
H 0.58674791 1.45090901 0.01721184
H 1.26840737 0.97919573 1.59427220
H -0.43835212 -1.38572066 -0.58867815
