11

N -2.0032375 -0.5211508 -1.9113826
C -1.5774981 0.026573323 -0.9886104
C -0.99923384 0.6960599 0.1952556
O -0.31189018 -0.20717217 1.0272813
C 0.80423677 -0.8236986 0.4350597
C 1.8540571 0.15884833 0.08093321
N 2.6530137 0.9457134 -0.19675888
H -1.801337 1.1197737 0.8004483
H -0.3466406 1.5116584 -0.14683457
H 1.1985177 -1.5230452 1.1748887
H 0.53001195 -1.3835604 -0.47028032
