11

N -1.62297725 0.00437659 0.00665285
C -0.97750784 0.15578479 -1.07086963
C 0.94795430 -0.58557178 0.02296622
O 1.12738025 0.14495565 2.29406839
C 0.91879147 0.43625268 1.14473153
O 0.33555865 -0.09660035 -1.16391785
H -1.35547440 0.49812117 -2.03737785
H 0.47793606 -1.51016482 0.36725192
H 1.98760476 -0.78305551 -0.25512739
H -2.59888073 0.25362712 -0.11672546
H 0.75961445 1.48227434 0.80834724
