11

N -0.7200433 1.8699064 -0.70155793
C 1.1340866 -0.97486126 -0.029930182
C -0.57680416 0.64386415 -0.3328377
O 0.3947083 -0.42402962 -1.0094782
C -0.4672151 0.071814425 1.0603771
O 0.2625435 -0.9559604 1.1852474
H 2.0143278 -0.3815705 0.24896412
H -1.5443224 -0.034483016 -0.37169313
H 1.3559711 -2.029968 -0.18992536
H -0.6696889 1.9492595 -1.7156818
H -1.1835636 0.26602817 1.8565159
