11

C -0.11643138 0.03929536 0.08983408
C -0.39120570 -0.14143563 -1.18295652
N -0.69806219 -0.40615263 -2.34626501
C 1.23563811 -0.27295351 0.66883194
N -1.05132711 0.62670814 0.99328471
H -1.92337568 0.86421176 0.53639739
H -1.26039842 -0.01649387 1.75496184
H 1.14501639 -1.04112977 1.44646086
H -0.52363556 0.36571970 -2.99570817
H 1.92281871 -0.64205853 -0.09690909
H 1.66096296 0.62428872 1.13206804
