10

N -0.5662651 1.1662953 -1.283926
C -0.15390742 0.2499499 -0.3257637
C 0.685782 -0.81224096 -0.39581192
O 0.689914 -1.414201 0.8442542
C -0.14710075 -0.67504454 1.5736656
N -0.6790496 0.32488945 0.9543554
H 0.1422617 1.4175373 -1.957946
H -0.9737652 1.9861505 -0.85641253
H 1.3005311 -1.2678187 -1.154709
H -0.29840073 -0.9755173 2.6022937
