10

N -0.82893807 1.1200215 0.86819404
C -0.17967123 0.1556722 -0.0012750599
C 0.6358983 -1.1847739 -1.3082988
O 1.3962432 -1.2545428 -0.19213258
C 0.8431115 -0.33986107 0.705798
N -0.35291308 -0.34662545 -1.2723274
H -0.78303164 2.0910444 0.56550795
H 0.12753145 0.7003406 1.605775
H 0.9177639 -1.8268309 -2.1319902
H -1.7759942 0.8855556 1.1607493
