11

N -0.35788995 0.49239272 1.9636663
C -0.15615651 0.18368354 0.61344934
C 0.5258691 -0.86739564 0.05366423
N 0.34612983 -0.712737 -1.3139716
C -0.41983238 0.3869917 -1.4946376
N -0.73642945 0.9577474 -0.35630518
H -0.75495315 1.4198631 2.0465193
H 0.47573447 0.41400084 2.5288954
H 1.0845009 -1.6920863 0.4682111
H 0.710028 -1.312986 -2.033422
H -0.71700066 0.73052585 -2.4760697
