10

O -0.241901 -0.17188922 2.027434
C -0.106421694 -0.03622543 0.6899042
C 0.7018808 -0.61531395 -0.26002103
C 0.29365823 0.008450309 -1.4644016
N -0.6732148 0.8880806 -1.2785581
N -0.9037368 0.84520763 0.053501118
H 0.3950367 -0.8276686 2.3378782
H 1.4648149 -1.366611 -0.11005043
H 0.6773391 -0.15902306 -2.461591
H -1.6074556 1.4349926 0.46590406
