10

O -0.12514777 -1.1836079 -1.0831878
C -0.066020235 -0.4815773 0.11449237
C -1.3133352 0.3751423 0.33347344
O -1.4886885 1.0093174 1.3429259
C 1.1428057 0.44170865 0.14311545
O 1.9267526 0.4507241 -0.77440244
H 0.6739922 -0.92850965 -1.5753871
H 0.02680029 -1.1504519 0.9865954
H -2.0215192 0.37509185 -0.5167368
H 1.2443597 1.0921627 1.0291115
