10

O 0.65179354 -0.43314847 1.8574233
C 0.011800738 -0.7575067 0.66428
C -1.0480912 1.0734596 -1.0295268
O 1.5174724 0.69582564 -0.53519917
C 0.43437812 0.21454372 -0.41988668
O -0.50522965 0.090347245 -1.6281902
H 1.4868447 -0.009683915 1.6136148
H -1.7808384 1.6247152 -1.6399953
H -1.0679865 -0.7425823 0.8299243
H 0.29985613 -1.75597 0.28755596
