10

O -1.0973332 1.1162834 0.29247442
C -2.023299 0.18710011 0.14543223
C 0.50168514 -0.7549009 -0.18595086
O 1.8666207 -0.9826189 -0.37746784
C 0.24286596 0.6983351 0.12848067
O 1.093592 1.524294 0.25610536
H -0.066831216 -1.0303942 -1.0845635
H 0.095298834 -1.3637065 0.6357009
H -2.9494193 0.77717716 0.3252759
H 2.3368201 -0.17156933 -0.13548726
