10

O 1.79012385 -1.13934602 -0.29940231
C 0.44272247 -0.79528798 -0.16629742
C -2.00421400 0.35999289 0.05854381
O -1.00926012 1.20649513 0.24805997
C 0.29602899 0.67505110 0.14084007
O 1.20808484 1.42514302 0.30741501
H -0.10792985 -1.02178533 -1.08938628
H -0.04947357 -1.36631925 0.63530850
H -2.88327168 1.02744594 0.19995634
H 2.31718863 -0.37138925 -0.03503777
