11

C -0.20509948 -1.16370489 -1.28443142
C -0.20408248 -0.26551863 -0.10039021
N -1.15045140 -0.03498455 0.74806621
C 0.78967531 0.73912325 0.46459038
C -0.26537336 0.95929274 1.42692359
O 0.04948301 1.97868893 0.50849215
H -1.13882157 -1.72765139 -1.32593728
H 0.63845962 -1.85844688 -1.24346274
H -0.10135338 -0.56748927 -2.19860174
H 1.87177456 0.77275967 0.51400107
H -0.28421089 1.16793103 2.49075008
