10

C -0.16920546 1.1992587 0.48743498
C 0.10083612 -0.4964791 -1.1455897
N -1.0754822 0.10828479 -1.5848148
N -0.47182107 0.97465086 -0.7814183
C 0.15142065 -0.032663226 1.1448915
C 0.23377882 -1.0270443 0.22514154
H -0.28917223 2.188701 0.90479654
H 0.8790754 -0.70399475 -1.888142
H 0.42760196 -2.0752788 0.41576242
H 0.21296816 -0.13543513 2.2219381
