10

C -0.22430842 0.9748652 -0.3676088
C -0.6307421 -0.039754868 -1.2353995
N -0.45656487 -1.3335162 -0.9868766
N 0.1326502 -1.7115004 0.13819359
C 0.54142386 -0.78998584 1.0035151
C 0.38952956 0.5820071 0.802852
H -0.3888304 2.01844 -0.6157817
H -1.1210805 0.18493648 -2.1794167
H 1.0154567 -1.1812661 1.9010485
H 0.74246615 1.2957746 1.5394742
