10

C -0.12185608 1.08036319 -0.38570071
C -0.29918495 -0.01044878 -1.26932435
N -0.74505495 -1.68809054 0.49318851
N -0.08584766 -1.13276561 -0.52199383
C 0.41702148 -0.83221197 0.78669245
C 0.18747090 0.61355239 0.87725126
H -0.30676214 2.11506280 -0.65043783
H -0.74667233 -0.05239448 -2.24942575
H 1.32287248 -1.30863499 1.16097984
H 0.37801344 1.21556796 1.75877049
