11

O 1.2549376 -0.65741414 -2.1041348
C 0.62408984 -0.34619197 -1.1152573
N 1.1412896 0.035387293 0.0985942
C 0.12960096 0.33844763 1.0823841
C -1.1393564 0.091664776 0.30602092
C -0.8604195 -0.2935353 -0.93824744
H 2.1324446 0.084706254 0.26278722
H 0.18935618 1.3766692 1.432332
H 0.19579089 -0.31347167 1.962274
H -2.1204393 0.22557317 0.74803853
H -1.5472949 -0.54183525 -1.7347916
