11

O 1.2041116 -0.43237555 1.3606112
C 0.61820465 1.1831052 -0.2513801
N 0.41367558 -1.1027403 -0.5487157
C -0.8829958 -0.5419832 -0.2517801
C 1.134486 -0.114587046 0.11106147
C -0.7004092 0.8837249 -0.4442806
H 1.0715533 2.141942 -0.04434018
H -0.13565324 -0.56881666 1.3139049
H -1.5134151 1.5910263 -0.5605725
H 0.56857085 -1.9873023 -0.07849444
H -1.7781285 -1.0519937 -0.606014
