11

O -0.02270248 -1.12901624 -1.91772239
C -0.06502348 -0.42737614 -0.75506184
N 1.07821657 -0.37027833 -0.01907042
C 0.84784417 0.38120452 1.11844815
C -0.45375198 0.79223251 1.08431216
C -1.04992035 0.27948027 -0.11342339
H 1.63378240 0.54856718 1.83832294
H -0.95235303 1.39805437 1.82741175
H 1.94527917 -0.80925565 -0.28457986
H -2.06822460 0.41691181 -0.45002342
H -0.89314682 -1.08052431 -2.32861384
