11

O -1.8644472 -0.7622597 -1.0427059
C 0.16996153 -0.13459575 0.33193937
O 0.29636484 -0.40351996 -1.7600394
C -0.72166604 -0.49743018 -0.85810685
C -1.246852 1.1440727 1.7684385
C 1.2432411 0.019926142 -0.7461351
O -0.20882171 1.089857 0.98285764
H -1.637233 0.09378761 1.8528523
H 0.3163637 -0.9296977 1.0700173
H 2.0878582 -0.6696546 -0.6903823
H 1.5652307 1.0495145 -0.9087357
