11

O -1.8009307 0.6533864 -1.6472045
C -1.1595668 0.028070422 -0.8666456
O -1.2137406 -1.3161247 -0.60407066
C -0.21878693 -1.2395877 0.4553869
C -0.045672048 0.23595984 0.13743494
C 1.1255958 1.1017436 0.06802369
O 0.09073448 1.2968494 1.0276972
H 0.6293561 -1.8951064 0.24820302
H -0.66515106 -1.4602369 1.4269593
H 1.1881163 1.8576932 -0.71265
H 2.0700455 0.7373523 0.4668657
