11

O 0.75889033 -1.5059249 1.668135
C 0.35611677 -1.0781431 0.6348334
O 0.8966793 1.3146479 0.026614513
C -0.0984382 1.9295894 0.8221864
C -0.0083519 0.26317343 0.021225223
C -0.25756833 -0.5472244 -1.2519183
O 0.034634657 -1.7605131 -0.5095761
H 0.111096 1.5729282 1.8599917
H -1.0076046 0.73639095 0.40422767
H 0.48735735 -0.36483997 -2.0267184
H -1.2728112 -0.56008416 -1.6490012
