11

O -1.8015524 0.6594402 -1.6396571
C -1.1573209 0.030111326 -0.8643776
O -1.2128536 -1.3156095 -0.61001736
C -0.22009423 -1.2418604 0.45369032
C -0.043466724 0.233712 0.13898331
C 1.1271237 1.1003733 0.067786254
O 0.091295786 1.2993836 1.0263889
H 0.62854815 -1.8965758 0.24951272
H -0.6710474 -1.462004 1.4233307
H 1.1887747 1.8523538 -0.7168314
H 2.0705924 0.7406752 0.47119126
