11

O -1.69080003 -0.29764777 -0.62220726
C -0.46129626 -0.08999217 -1.36766972
O -1.47123447 -0.41947307 1.66786323
C -1.02721202 -0.32709057 0.56968311
C 0.35427444 -0.18793907 -0.07899156
C 1.59996240 1.15378873 1.45144544
O 1.04647628 1.01810866 0.27681548
H 1.01596952 -1.05345078 0.02757777
H -0.31235098 -0.88808053 -2.09639679
H -0.44187505 0.89842243 -1.83011625
H 1.38808565 0.19335388 2.00199654
