11

C -1.5310404 0.6305907 0.8268875
C 1.5237902 -0.9445395 -0.21629803
C 0.64000934 -0.8367886 0.8668231
C -0.26572153 0.04081539 0.30922678
N 1.1352004 -0.23339637 -1.2866346
O 0.0098358225 0.4437696 -0.9795047
H -1.684356 1.6487744 0.45713183
H 1.6105479 0.115967155 -2.104945
H 2.436117 -1.5214494 -0.31978133
H -2.3930473 0.022285396 0.5295022
H -1.4813353 0.63397133 1.9175923
