10

O -1.1255374 -0.43287775 0.22515054
C -0.3028949 -0.064420536 -0.81085014
C 0.85259056 0.32211107 0.07569584
C -0.09847751 -0.11006616 1.2006769
N -0.49834216 -0.07244127 -2.046342
H -1.4340092 -0.41370076 -2.266984
H 1.7481391 -0.28791502 -0.059381627
H 1.107019 1.3827823 0.044074684
H 0.19347337 -1.0005057 1.7627708
H -0.4419605 0.6770337 1.8751887
