10

O -0.3683786 1.6630883 1.0589086
C 0.03632242 0.6087086 0.2908772
C 0.9768912 -0.44427055 0.6326867
C 0.53274155 -1.4166592 -0.3267825
N -0.9446578 0.081076026 -0.59223145
N -0.5722499 -1.1039888 -1.0099016
H -1.7064085 0.56329954 -1.0439796
H 0.106950104 1.5798181 1.8964248
H 0.9521533 0.8508952 -0.388068
H 0.98663616 -2.3819673 -0.5179341
