10

O -0.79439956 -1.7328875 -0.74649835
C -0.2982205 -0.58629906 -0.23459354
C 0.86495274 0.12524049 -0.4210785
C 0.71080726 1.2352991 0.44453064
N -0.43440917 1.2120514 1.1024269
N -1.0398821 0.08325723 0.670087
H -0.15540385 -2.0968363 -1.3713107
H 1.6895972 -0.116419576 -1.0743859
H 1.4029076 2.0502517 0.6066646
H -1.9459497 -0.17365775 1.0241579
