10

N 0.72042745 -1.8182528 -0.2849494
C -0.5388506 1.3389865 0.19459142
O -1.5874276 1.9793698 0.6974769
N -0.45398235 0.071170144 0.22843383
C 0.72738594 -0.45983544 -0.35818362
O 1.6203908 0.18971427 -0.8617089
H -2.190646 1.3028138 1.0468023
H -0.023780186 -2.292744 0.19626178
H 1.5195581 -2.31893 -0.6274335
H 0.20692459 2.0077076 -0.23129085
