10

N 0.88127333 -1.76242949 -0.15314935
C -0.64667773 1.30142810 0.09593462
O -1.83367981 1.88729803 -0.00545956
N -0.50505943 0.04998244 -0.07592070
C 0.83006586 -0.41979552 0.05997316
O 1.79737894 0.26483013 0.32170457
H 0.15502908 1.99772420 0.33506260
H 1.76278442 -2.22948377 -0.04646614
H 0.03389842 -2.28002378 -0.31000285
H -2.47501338 1.19046934 -0.22167642
