10

O -0.8685033 0.71943754 1.968052
C -0.7711066 -1.0197798 0.32888478
C 0.6328496 0.36416942 -1.124171
C -0.40781468 0.20329227 0.9626886
N 0.590778 0.80034447 0.14080466
H -1.774933 -1.4028052 0.49627876
H -0.013604313 -1.7259822 0.026010664
H -0.26785725 0.2932364 -1.7183005
H 1.5969085 0.3526576 -1.62998
H 1.2832828 1.4154295 0.5497322
