10

O 2.51344570 0.96401416 -0.70546242
C 1.33576029 0.75124234 -0.46207747
C 0.83858976 -0.44384987 0.13813714
C -1.57317311 0.02878859 0.09669225
N -0.49144886 -0.65433054 0.36464033
H 1.50401244 -1.23640400 0.45546122
H -0.66430178 -1.53864346 0.83748251
H 0.56859141 1.52956036 -0.70130525
H -2.53064822 -0.38286223 0.38915994
H -1.50082728 0.98248441 -0.41272799
