10

O 2.0052946 1.1507063 0.43041366
C 0.9596735 0.6006476 0.20501806
C 0.43196929 -0.8479627 0.2323697
C -0.9142094 -0.24457715 -0.23597142
N -0.2658703 1.0637715 -0.19514
H 0.9247284 -1.5169424 -0.47668627
H 0.42592216 -1.2985499 1.2268912
H -1.2349774 -0.5491724 -1.2367387
H -1.7438773 -0.3513539 0.4691919
H -0.5886532 1.9934328 -0.41934788
