10

C -0.60134442 0.84911486 0.90546639
C -0.06075335 -0.57481093 -0.87560727
N 1.15967238 -0.64441990 -0.28622688
C 1.59388750 -0.01255341 0.86955120
N 0.59360280 0.75800806 1.44274384
C -1.00671677 0.19950699 -0.27756106
H -1.32042715 1.48146721 1.43091389
H -0.21504608 -1.14025619 -1.79020529
H 1.86200091 -1.22100559 -0.73451400
H -2.00487587 0.30494867 -0.68456066
