11

N 0.9025077 2.7207537 -0.46387786
C -0.011292231 0.48713362 0.5967701
C -0.8732793 -0.35870802 -0.35858116
C 0.2875894 -1.2834411 -0.6473247
C 0.5098742 1.7363694 0.0027904634
O 1.055031 -0.45919052 0.8605483
H 0.12742637 -2.3232694 -0.3672187
H -1.723064 -0.7909263 0.18203762
H 1.4422562 -0.6388925 -0.12386482
H -0.48466277 0.721344 1.5530567
H -1.2323865 0.18882716 -1.234336
