11

N 1.3660359 -0.6660759 2.5971696
C 0.6595964 -0.67478454 1.6837075
C -0.24204153 -0.6531669 0.5153249
C -0.53104156 0.74246424 -0.075040795
C 0.24179858 0.22060616 -1.2930579
O 0.40643057 -1.0761262 -0.68288654
H -1.1215992 -1.2639734 0.7458885
H -1.5930308 0.93367684 -0.24268155
H -0.079772554 1.5784302 0.45859
H -0.31671336 0.15707517 -2.2302008
H 1.2103375 0.7018747 -1.4768125
