12

O -1.3017284 1.6549274 0.6507872
C 0.6227373 0.26162124 0.33883867
C 0.8116361 -0.75269336 -0.75589985
O 0.13341862 -0.3665531 1.499938
C -0.33882344 1.3859009 -0.032394588
O -0.8326585 -1.4521737 -0.7748506
H 0.8262638 -0.2628411 -1.7387825
H -0.9961432 -1.3717985 0.18671994
H -0.10660848 1.9368787 -0.9610316
H 0.07858346 -2.0079608 -0.77986956
H -0.5146939 0.2554823 1.8765075
H 1.6180165 0.71920997 0.49003747
