11

C -0.14032782 -1.83842451 1.45988162
N 0.79984248 0.66157469 -0.65240552
C -0.48159879 1.31672561 -0.94477593
O -0.20557885 -0.76083248 0.63458960
C 1.03399568 -0.38644315 0.11737952
O -1.11397180 -2.28270120 1.99482194
H -0.93604468 1.69241036 -0.02420807
H -1.17026539 0.61249684 -1.41995244
H -0.29456037 2.15366549 -1.62160013
H 0.88941203 -2.21351042 1.55166100
H 1.61909755 1.04503864 -1.09539149
