11

C -1.4726323 0.79283625 -0.4509852
N -0.48030004 -0.08755774 0.1260903
C 0.8419047 0.026109245 -0.1237501
O 1.3845447 0.8462026 -0.84130603
C 1.6737336 -1.0231651 0.60943294
O 1.1956487 -1.860637 1.3297836
H -0.95076776 1.515797 -1.0809517
H -2.182533 0.23098485 -1.0660539
H -2.0203483 1.3291095 0.33119896
H -0.74764407 -0.83343655 0.75528425
H 2.7583938 -0.9362432 0.41125697
