10

C 0.80915713 -0.13788106 -0.040694218
C 0.26537186 0.98972195 -0.80556685
N -1.3020468 -0.95111805 0.3972087
C -0.9377166 0.3761877 0.5649817
N -0.9865422 1.224061 -0.5352545
C -0.06589033 -1.2914801 0.16512942
H 1.8828305 -0.23318385 0.106942266
H 0.83354336 1.5686226 -1.5326968
H -0.75982857 0.78482205 1.5611341
H 0.26112163 -2.3297522 0.1188163
