10

C 0.82088006 -0.09541641 0.7835953
C 0.4491862 1.1349832 0.26015717
N -0.5114577 1.261623 -0.657172
C -1.0936879 0.1279592 -1.0446649
N -0.82277757 -1.1039213 -0.6191535
C 0.1386384 -1.2042673 0.29859084
H 1.6000507 -0.18787622 1.5309063
H 0.93288714 2.0545003 0.58480495
H -1.8796427 0.21920902 -1.7914175
H 0.3659232 -2.2067938 0.65435344
