11

C 1.2985626 0.63778687 0.572676
C 0.10200694 -0.29134443 0.41334474
C -0.747256 0.05069156 -0.7833871
O -0.5426084 0.9454197 -1.5600067
C -1.9312186 -0.8317493 -0.9733733
N -2.8460863 -1.5203892 -1.1129414
H 1.946144 0.59957147 -0.30743897
H 1.882837 0.3426686 1.4485592
H 0.9761408 1.6747049 0.7026878
H -0.55139846 -0.2689832 1.2958298
H 0.4128765 -1.3383772 0.3040498
