11

C -1.7458819 0.46279997 -0.4544107
C -0.4365891 1.0938692 -0.3771773
C 0.6849164 -1.1457609 0.3845326
O 0.11971506 1.2309535 0.9200803
C 0.74616826 0.31527174 0.03352869
N -2.7831028 -0.037929486 -0.5426858
H -0.31641158 -1.4299202 0.7185069
H 1.3951248 -1.3676323 1.1863877
H 0.95098394 -1.7525448 -0.48653954
H -0.31690115 1.9562472 -1.029987
H 1.7019782 0.6746463 -0.35223585
