10

N 0.29037118 -0.4789864 -0.7013499
C -0.5843819 -0.07340084 0.26672992
C -0.8662311 1.1966646 -0.09044883
O 1.7289114 1.3499079 -0.8191778
C 1.4591131 0.17049986 -0.95833653
N -1.1302596 -0.9626507 1.113107
H 2.2020764 -0.5320827 -1.3756269
H -0.15112993 1.9989476 0.094182186
H -0.9498902 -1.9327407 0.9039445
H -1.9985793 -0.7361585 1.5669764
