12

C -0.96828835 -0.42962940 -1.23842003
C 0.63984102 0.17298324 0.53778413
O 1.58226748 -0.25254399 -0.34280498
N -0.62824987 0.06436246 0.00461569
C 0.90105761 0.64307797 1.75980551
N -2.19298652 -0.46972234 -1.57494790
H -2.28506434 -0.85717038 -2.50818759
H -0.11173526 -0.74709471 -1.83577875
H 2.44262132 -0.18219276 0.08880368
H 1.92102887 0.72437753 2.11940265
H -1.39941618 0.38429697 0.56914680
H 0.09892405 0.94925554 2.42058047
