12

C -0.009467461 -1.6807952 0.0384826
C 0.10363284 2.0821083 -0.21078284
O 0.39281642 0.67277646 1.4843452
N -0.22098994 -0.38980198 -0.45275524
C 0.048748445 0.7296035 0.23893934
N -0.34816992 -2.6701128 -0.6696893
H 0.7065165 1.821868 1.1699532
H 0.44628096 -1.6872072 1.0301116
H -0.70742804 2.680648 0.20560658
H -0.5961494 -0.31408203 -1.3879597
H 0.31831172 2.2952871 -1.2566094
H -0.1341021 -3.5402918 -0.18964213
