10

O -0.9242382 1.5802473 -1.8315967
C -0.38905358 0.94042 -1.0171276
O -1.4396851 0.6431091 0.5067312
C -0.7676104 -0.4369243 0.62129444
C 0.6724574 -0.29729345 0.821732
C 0.58415866 0.028581642 -0.66388553
H 1.2918127 -0.31661275 -1.408863
H 1.2149292 -1.2292647 0.98188657
H 0.9963062 0.50726986 1.4833523
H -1.2390769 -1.4195327 0.5064762
