10

O 0.02496555 2.67265026 -0.93177889
C -0.26149926 -0.79314787 0.14469418
O 1.68868405 0.52892262 0.58563636
C 1.11837003 -0.53247007 0.68501123
C -0.33468537 1.59100470 -0.70058227
C -0.88519926 0.40451278 -0.51232813
H 1.59914967 -1.39405736 1.19149039
H -1.89938761 0.32812695 -0.89399641
H -0.17999582 -1.64259198 -0.54968568
H -0.87040213 -1.16294955 0.98153925
