12

O -0.66433394 -1.452429 0.88068324
C -0.06050212 -0.22570911 1.2000141
C 0.4457954 0.45254442 -0.071917616
O 1.3253555 -0.42774788 -0.7210595
C -0.70971787 0.7762178 -0.99609673
O -0.7221276 0.3804869 -2.1364698
H -0.03150899 -1.9078163 0.30543813
H 0.7849642 -0.34514555 1.8914348
H -0.8176642 0.39585617 1.6920683
H 0.94078654 1.403705 0.1890734
H 1.0320966 -0.45452237 -1.6485276
H -1.5231435 1.4045599 -0.58464086
