11

O -0.6153221 1.5050049 0.0029078305
C -0.05113605 -0.32601213 0.098967396
C 1.1090225 -1.1979749 -0.16268958
C -0.2605624 0.68140113 1.1341687
O 0.014299265 0.36503375 -1.9406955
C -0.83545166 0.34118605 -1.0220855
O 1.8463532 -1.4986221 0.75133395
H -1.9195522 0.21545272 -1.1720062
H -1.095045 0.5087555 1.8245964
H 1.1757256 -1.6222491 -1.1758939
H 0.63166875 1.0280241 1.6613966
