10

O 0.7553193 1.8190491 0.3041455
C -0.15444867 -0.12911412 -0.70820457
N -0.65334296 -1.9929484 0.40899146
C 0.11597939 0.62109023 0.498202
C -0.33729234 -1.5477096 -0.71952873
N -0.22843266 0.23684405 1.66139
H 1.1976571 1.822438 -0.55157256
H 0.18545876 0.8564258 2.3615282
H -0.46790722 0.42097566 -1.5924037
H -0.4129908 -2.1070507 -1.6625472
