10

O 1.7673194 0.3319959 -0.8132123
C 0.78009325 -0.08746141 0.020582952
N -1.4872756 0.9851728 0.6104841
C -0.61849886 0.22943048 -0.3888855
C -1.7208359 -0.23004362 0.42539537
N 1.005434 -0.738484 1.0805986
H -0.7746354 0.47281456 -1.4407462
H 1.4053108 0.9045679 -1.5033736
H 2.0085514 -0.84875333 1.2275234
H -2.3654628 -1.0192392 0.78163314
