15

N -1.207578 1.4403245 -0.51499087
C -0.5178176 0.61657673 0.4367131
O -0.8651788 1.1094575 1.6800715
N 0.9173413 0.63524455 0.20782113
C 1.3539127 -0.7285035 -0.111290455
C 0.03865514 -1.4275353 -0.4587225
O -0.88646805 -0.758777 0.3818948
H 1.8151809 -1.1969668 0.7654552
H -2.0890307 1.7470489 -0.11605738
H 1.1380508 1.3094019 -0.51497376
H -1.400211 0.9222647 -1.3650467
H -0.1609821 0.8519657 2.2861798
H 0.007907874 -2.494179 -0.22522408
H 2.078335 -0.74156576 -0.93217975
H -0.2221172 -1.2847571 -1.5196496
