11

C 0.5806354 -2.3815024 0.4712614
C -0.5287529 2.2819843 -0.13299286
C -0.35132992 -0.029042723 -0.4109726
O 1.1880885 -1.9890841 -0.7817073
C 0.2567551 -1.1532466 -0.1957539
N -1.0102665 0.9934893 -0.62501085
H -0.105420284 -3.2229936 0.40448228
H -0.42834195 2.958691 -0.9856927
H -1.2876798 2.6979043 0.5362958
H 0.43012232 2.2149994 0.39484134
H 1.2561904 -2.371199 1.3252493
