11

C 0.27185965 -0.16207883 0.66256356
C 0.2022572 -1.395462 1.4203628
C 1.1516825 0.6298987 -0.025776243
O -0.20442143 -0.11133097 1.9436878
C -0.7841048 0.9194591 -1.5340995
N 1.4420854 1.3270688 -0.95221287
H -0.79980624 1.532939 -0.6596805
H -1.5243334 1.1476365 -2.3033543
H -0.61116874 -2.0913 1.2252998
H -0.24259844 0.007580294 -1.6596255
H 1.0985482 -1.8044107 1.8828353
