11

O -0.27830127 1.6421742 2.164599
C -0.21438706 0.8681025 1.2333189
C 0.75528926 1.0190219 0.13579825
C 0.78160655 0.13405617 -0.8723604
N -0.10442545 -0.9206197 -0.8764302
C -0.99531806 -1.0439718 0.15262516
N -1.0876815 -0.24447936 1.1502688
H 1.4375975 1.8596358 0.16675
H 1.465796 0.18411994 -1.7113546
H -0.10080651 -1.5948 -1.6229488
H -1.6593695 -1.9032396 0.0797341
