10

O 1.10694972 0.53876272 -1.46807978
C 0.04606162 -0.96530887 1.09480301
C 0.07211994 -0.08332251 -1.33719866
C -0.62748096 -0.20472208 -0.03238813
N 0.06859978 0.58027537 0.98681957
H 1.05114286 -1.24478528 0.73232262
H -0.36905793 -0.65724534 -2.17257395
H -1.71252549 -0.13447179 -0.05220947
H -0.49112607 1.07772720 1.66382280
H 0.85531642 1.09309048 0.58468179
