10

O -0.22712177 -0.7787592 -1.7457855
C -0.3274307 -0.17352207 0.5521798
C -0.43050385 -1.1225921 -0.604522
C 1.0383971 0.37169963 0.8190241
N -0.33900723 1.207434 0.1082555
H -0.98741865 -0.3999512 1.387663
H 0.44334304 1.6396095 0.7999434
H -0.67007905 -2.171905 -0.34909466
H -0.15098609 1.2517037 -0.8924348
H 1.6508073 0.17628285 -0.07522902
