10

O 1.8305265 -0.15972778 0.7768405
C 1.1359879 -0.81105167 0.031991944
C -0.117782444 -0.26689678 -0.5604702
C -1.0603467 0.3873025 0.39505127
N -0.29287824 1.1808177 -0.536913
H 1.399405 -1.850329 -0.24929148
H -0.50876176 -0.78147054 -1.4344409
H -2.126013 0.32513064 0.19175723
H -0.77104205 0.39298242 1.4438896
H 0.5109047 1.5832424 -0.058415163
