11

O 1.7533535 -0.91768336 -1.831152
C 0.7315394 -0.26761943 -1.9189321
N -0.033797063 0.08308619 -0.854388
C 0.34087268 -0.32233176 0.4911877
C -0.57905173 0.25160015 1.4710419
C -1.3444917 0.7248229 2.26539
H 0.32278985 0.10365824 -2.8771396
H -0.8774127 0.6178695 -0.9925864
H 0.33361956 -1.4164498 0.56713706
H 1.3671306 0.0020206475 0.6962178
H -2.0145526 1.1410267 2.9832237
