12

N -0.28868568 0.20678931 1.4057235
C 1.12027 0.7436678 -1.5502057
C 0.790674 -0.5254924 0.84594893
C -1.4513505 0.15579624 0.7442867
N -1.6799892 -0.5438437 -0.32362688
C 1.2503804 0.08010671 -0.42811972
N 2.3757036 0.3499065 -1.1954194
H -2.6597722 -0.44263497 -0.58885586
H 0.5782097 1.2922436 -2.2975206
H -2.2203336 0.7787708 1.2122113
H 0.5463199 -1.5762973 0.62763214
H 1.6385734 -0.51901287 1.5479459
