12

N -0.4358173 -1.6698488 2.3254025
C -0.3430391 -0.77141553 1.6065707
C -0.25190264 0.360712 0.66424495
C 1.1516118 0.48273557 -0.008434343
N 1.0054975 -0.074398816 -1.352417
C -0.24289206 -0.24133132 -1.537961
N -1.0985754 0.14663053 -0.50985694
H -0.53481823 1.2742482 1.1967692
H 1.4502056 1.5330026 -0.08203546
H 1.9275055 -0.050889827 0.54694915
H -0.66897655 -0.6205414 -2.4642472
H -1.9587995 -0.36890307 -0.3849847
