12

C 0.92791268 -0.14851521 0.38485975
C -0.12609906 -0.59116992 -0.65040902
N -1.04020348 0.40828160 -0.10320919
C 0.08053285 1.12905639 0.52283372
O -0.60923936 -1.89775460 -0.66569727
H -1.02386504 -2.04801726 0.19488005
H -0.12966093 1.49554346 1.53098315
H 0.89291590 -0.77443197 1.28104867
H 0.20091938 -0.39687435 -1.67999456
H 1.95890184 -0.04754494 0.04041370
H -1.60963127 0.91717665 -0.77068556
H 0.47751665 1.95425035 -0.08502359
