12

C 0.03538058 1.020795 0.40634194
C 1.2351936 0.10825301 0.15168725
N -1.0014503 0.32834557 -0.36288396
C -0.74997306 -0.9739193 -0.552832
O -0.5079644 -1.9453732 0.32504523
H 1.9750535 0.11862069 0.9638665
H -0.23099613 1.0524653 1.4719195
H 0.25353643 -1.5840042 0.8174786
H 0.07221516 2.0671873 0.0485712
H -1.5520152 0.81172305 -1.0599976
H -1.262181 -1.3913609 -1.4236197
H 1.7332008 0.38726747 -0.7855771
