12

C -0.3497152 -1.1026505 0.98038626
C -0.25991246 -0.62772566 -0.46847454
N -0.26535156 0.8197759 -0.5851108
C 0.8767848 1.5496591 -0.49443668
O 1.9941144 1.0796777 -0.40980688
H -0.34255376 -2.1958485 1.0260348
H -1.2700673 -0.7460017 1.4561465
H 0.50706345 -0.7254906 1.5477297
H -1.0947075 -1.0183233 -1.0603744
H 0.66995984 -0.98075414 -0.924858
H -1.1459807 1.3095891 -0.5400224
H 0.68036616 2.6380928 -0.5272137
