12

C 0.4913861 1.1093056 0.28738427
C 0.9481308 -0.34893075 0.10242586
N -0.90124893 0.6504376 0.1550825
C -0.4600898 -0.58958787 -0.478663
O -1.1896657 -1.7266405 -0.13858633
H 1.8009936 -0.5421473 -0.5510794
H -1.537236 1.232579 -0.379126
H -0.46198574 -0.5682139 -1.5760589
H 0.8302489 1.754552 -0.53533125
H 1.080623 -0.87137604 1.0540812
H -1.3151325 -1.6967767 0.81977314
H 0.7139763 1.5967988 1.240098
