10

O 1.19361629 -1.09866760 1.14813875
C 0.48192508 -0.41068074 0.45286409
C 0.49040017 1.10011650 0.47212717
C -1.85305890 -0.47862117 -0.75160808
O -0.93597551 -0.31097152 -1.63005495
C -0.49215921 -1.08437944 -0.45894287
H -0.34899882 -2.14229508 -0.64939309
H 0.75665251 1.49456198 -0.51546691
H -0.50529789 1.48415874 0.71995270
H 1.21289631 1.44677848 1.21238305
