11

O -1.7970961 0.6570486 -1.6452978
C -1.1575534 0.027434887 -0.8677913
O -1.2135732 -1.3166976 -0.60848093
C -0.21979915 -1.2404062 0.45364478
C -0.044380456 0.23458165 0.13575642
C 1.126705 1.1005919 0.06908244
O 0.088715106 1.2970884 1.0269921
H 0.62796897 -1.8966614 0.24941215
H -0.6678286 -1.458533 1.4240947
H 1.1872815 1.8565496 -0.7108268
H 2.0695603 0.7390028 0.4734143
