11

O -2.16851219 1.14958543 -0.31988872
C -0.14375094 -1.50760020 -0.92649915
O -0.36269539 -1.26569795 0.83127725
C -0.07010490 -0.25216114 -0.16571568
C -1.00379955 0.95083698 -0.19606258
C 0.99809081 0.77812952 0.17113559
O 0.00716601 1.83665862 0.02761194
H 0.88547683 -1.90794721 -0.90933723
H -1.32134253 -1.41700914 0.85668326
H 1.79815823 0.89025545 -0.56124111
H 1.38131359 0.74494926 1.19203649
