13

N 0.017478053 -0.9161665 -1.0552211
C 1.2558254 1.1180506 -1.2018858
C 0.15866745 0.5041921 -0.58466357
N -1.1889292 -0.26131123 1.231888
C 0.052367087 0.46426466 0.90584797
N 2.1491807 1.6150432 -1.7639877
H -1.9819769 0.32149965 0.97347015
H 0.09449053 1.4883164 1.2964283
H -1.2552406 -0.4696816 2.2221828
H 0.867534 -1.4898741 -1.03282
H -0.6780059 -1.3049207 -0.39117363
H -0.36137402 -0.96922356 -2.0013201
H 0.8699835 -0.10018883 1.4012551
