9

N -0.75622387 -0.99483201 0.74949474
C -0.40625787 -1.13631071 -0.67903933
C 0.48949734 1.21264244 0.23139982
C -0.02903279 0.03837868 0.09120474
N 1.13216007 2.25825721 0.38131325
H 0.58471385 3.10166493 0.21146589
H -0.13637816 -1.55630500 1.32988779
H -1.25931466 -1.09448988 -1.35456898
H 0.38083622 -1.82900543 -0.96115781
