9

N -0.18439741 -0.39524144 -1.0702934
C -0.6733919 -0.85218984 1.50468
C 0.9007121 0.39175126 -0.4079937
C -0.2628577 -0.12577993 0.30453828
N -1.476651 0.15773843 1.3917694
H 1.8576294 -0.09535915 -0.2238568
H -1.186531 0.8569407 0.4898069
H 0.9591526 1.4266729 -0.734568
H 0.066334784 -1.3645328 -1.2540829
