9

N -2.193499 0.30482316 -1.437569
C -1.2757032 0.45116016 -0.750347
C -0.103228375 0.6242338 0.08775591
C 0.46922642 -0.5774997 0.7561756
N 1.1751074 0.056822397 -0.34215432
H -0.034382284 1.5940137 0.5718734
H 0.92548203 -0.4573955 1.7348665
H -0.028092956 -1.5284756 0.58527803
H 1.0650901 -0.46768218 -1.205879
