10

O 1.8323781 -0.15945405 0.77589995
C 1.1361369 -0.8104353 0.031801797
C -0.11815628 -0.26689026 -0.5603181
C -1.0612164 0.38675725 0.396143
N -0.29336718 1.1803567 -0.53776765
H 1.3992007 -1.8491579 -0.24749662
H -0.5095794 -0.7840461 -1.4330693
H -2.1282463 0.3267609 0.19486617
H -0.7715424 0.3935014 1.4450417
H 0.51439214 1.582607 -0.06510064
