10

O 1.3551829 1.1071768 -0.14579718
C 0.16447331 1.4022851 0.37310588
C -0.39027515 -1.0505579 0.39480633
C -0.7714006 0.3327997 -0.05059705
N -0.4293421 -0.72688323 -1.0082928
H -1.8249047 0.6003868 -0.019770842
H 0.5141221 -0.57058597 -1.3577096
H 1.9731911 1.7786807 0.17419358
H 0.5811821 -1.1659756 0.87861925
H -1.1722292 -1.7073264 0.7614426
