9

N -0.80887383 1.8452305 -0.13286686
C -0.10884445 0.81080353 -0.35069603
N -0.23566271 -0.30789974 0.45941147
C 0.48086143 -1.4715515 0.30119362
O 0.36382028 -2.44008 1.0099822
H -0.5998055 2.5709953 -0.8088439
H 0.62930655 0.6798518 -1.1469157
H -0.90303034 -0.26150903 1.2201872
H 1.1822286 -1.4258409 -0.5514519
