9

N -0.033573683 0.4601981 -0.09172188
C 0.26852104 -0.86827016 -0.089640334
N -0.35860625 -1.5084918 0.89835
C 0.5176879 1.3117703 -1.0450302
O 0.28552756 2.491916 -1.082141
H 1.1754268 0.7679897 -1.7385076
H -0.20821337 -2.4981678 1.0017653
H -0.6555238 0.92731994 0.5729488
H -0.9912463 -1.084264 1.5739771
