11

N -0.03751298 0.21382526 -2.26017357
C 0.05550224 0.11469788 -1.00594121
C -1.08646437 -0.25884396 -0.16611352
C 0.32941363 -0.11582360 1.87507402
C -0.96575442 -0.36655140 1.15177614
N 1.24787842 0.21187948 1.04632938
O 1.24158219 0.36441529 -0.35447880
H 0.85636913 0.47571424 -2.67901375
H 2.19018947 0.43131255 1.34271809
H -2.00855312 -0.43140338 -0.71053920
H -1.82265027 -0.63922240 1.76036204
