11

N 0.9644085 0.46373913 -2.1438396
C 0.5793831 0.24229492 -0.95913213
C -0.79884845 -0.11658811 -0.6432768
C -1.148784 -0.34075847 0.6279277
C -0.122565575 -0.2103575 1.6423696
N 1.0984944 0.1018147 1.4178327
O 1.4611335 0.33331478 0.102309726
H 1.9557867 0.70078045 -2.1681087
H -1.4819893 -0.18464173 -1.4812956
H -2.1600373 -0.61078113 0.91544473
H -0.34698167 -0.37881708 2.689768
