11

O -0.6615164 -0.97861344 -1.4672991
C -0.49509293 0.11005119 -0.6163919
C 0.87330097 0.8128701 -0.49378052
O 0.8243571 0.65576804 0.9526
C -0.30132416 -0.12936945 0.8660631
N -0.8872859 -0.83883035 1.7178812
H 0.93341935 1.866598 -0.77077085
H -0.25752005 -1.756198 -1.0649648
H -0.42019746 -0.7950013 2.622889
H 1.7002378 0.24092299 -0.92448676
H -1.3083786 0.81180227 -0.8217397
