11

O -1.8734224 -0.08534974 -0.104891494
C -0.6245323 0.49729955 0.082665436
C 0.273454 0.07599782 1.2654501
O 1.3699727 -0.1825081 0.34134248
C 0.5433109 -0.0014327995 -0.7402472
N 0.70041376 -0.2627013 -1.9562014
H -1.7533102 -0.9449933 -0.5262813
H -0.7466649 1.5829661 0.02153667
H 0.5466262 0.8393378 1.9962827
H -0.051921647 -0.84695035 1.7553606
H 1.6160738 -0.6716656 -2.1350164
