11

O -0.5998932 -0.605138 1.2459588
C 0.8220568 -0.28160366 0.7349211
C 0.28537557 0.31931007 -0.5142869
O 0.28184026 1.3605939 0.46268177
C -0.9911578 -0.53582925 -0.18862963
N 0.67883766 0.40964618 -1.7698057
H -0.96420705 -1.5478212 -0.5881347
H -0.5553912 0.4230645 1.4996755
H -1.962527 -0.05911636 -0.28942472
H 1.3369007 1.167395 -1.8768048
H 1.6681654 -0.6505014 1.2838494
