11

O -1.8746918 -0.0884852 -0.099940635
C -0.6241354 0.49659774 0.082740106
C 0.2737438 0.07231914 1.2647744
O 1.3659894 -0.18436137 0.33871046
C 0.54007643 -0.0003211022 -0.7428995
N 0.69931144 -0.260234 -1.9597521
H -1.7492331 -0.94461375 -0.52712184
H -0.7462795 1.582202 0.024293026
H 0.5469636 0.8367541 1.9951508
H -0.051492296 -0.8484791 1.7569653
H 1.6197474 -0.6613785 -2.13292
