11

O -0.65414845 0.04133728 -0.98588038
C -0.21832111 0.87985466 -0.00634193
C 0.52160851 0.03335429 1.00545700
O 0.15536904 -1.28932072 0.66464875
C -0.15328860 -1.26332277 -0.69681063
N -0.38059442 2.12431465 0.05808860
H -0.93276022 -1.99864060 -0.90275406
H -0.88644408 2.47168350 -0.75200298
H 0.21029353 0.25144013 2.02836266
H 1.60472322 0.19288637 0.90763690
H 0.73356255 -1.44358684 -1.32040391
