11

N 0.9692994 0.46295667 -2.1396296
C 0.5810624 0.24080443 -0.95541155
C -0.79707855 -0.11893329 -0.6443414
C -1.1526294 -0.3405628 0.6264128
C -0.12583907 -0.20706122 1.6409981
N 1.0937839 0.1043147 1.415147
O 1.464014 0.3338892 0.102010295
H 1.9604962 0.7002942 -2.162379
H -1.4775547 -0.19051109 -1.4843653
H -2.1637638 -0.61080766 0.91257703
H -0.35179064 -0.3743832 2.688981
