11

N 0.96483755 0.46270165 -2.1428416
C 0.5774494 0.24427195 -0.95966965
C -0.80216557 -0.1161655 -0.64284194
C -1.1511625 -0.34018597 0.6261905
C -0.12172909 -0.20957893 1.6425173
N 1.099559 0.10650963 1.4183049
O 1.463378 0.33517253 0.1009472
H 1.9564317 0.6990599 -2.1659737
H -1.4819474 -0.18559512 -1.4826726
H -2.1596699 -0.6158434 0.91647047
H -0.3449808 -0.38034675 2.6895685
