11

N 0.12801552 0.30273882 -2.47389381
C 1.18183871 0.30634464 -0.25419933
C 0.06814473 0.15395472 -1.22853778
C -0.74217343 -0.26591043 0.82427955
C 0.70351351 0.05959023 0.95684364
N -1.63655977 -0.57315265 1.65932150
O -1.06661847 -0.18838952 -0.52289096
H 2.18174083 0.57429116 -0.56564117
H -0.78184717 0.14049468 -2.90554144
H -1.25404977 -0.58567279 2.60052914
H 1.21799572 0.07571113 1.90973004
