11

N -0.8138651 -1.7041535 2.3768017
C -0.11240525 -0.66716033 0.16775559
C 0.20770064 0.7412854 0.06717524
C 0.6342442 1.4286203 -1.0184706
C -0.53099555 -1.1902949 1.3096988
N 0.87445146 0.9342738 -2.3159146
O 0.6255046 -0.24337465 -2.5282466
H -1.7981441 -1.8033192 2.614061
H 0.0904206 1.3238144 0.9793185
H -0.02106426 -1.3117512 -0.6998411
H 0.84415275 2.4920597 -0.9523378
