10

N -0.78897425 1.03634893 0.36389509
C -0.19151896 -0.93731574 -0.83281908
N 1.36441329 0.10828619 0.82459707
O -1.81312065 0.68734367 -0.45073499
C 0.07897530 0.07793894 0.09269060
C -1.43997243 -0.45470349 -1.13132514
H -2.22293574 -0.78283407 -1.80533302
H 1.85822099 -0.72019001 0.47371991
H 1.24309790 0.03552309 1.83759498
H 1.91181466 0.94960237 0.62771449
