10

C 0.59325254 -0.7007902 -1.524099
O -0.05573179 0.42895788 2.8567104
C -0.6820257 0.7426633 1.8969469
O 0.6762716 0.5838276 -0.85508734
C 0.00843241 0.74652696 0.2520831
O -0.7527526 -0.21415798 0.64407045
H -0.4127739 -0.8510144 -1.9232641
H 0.845837 -1.5037059 -0.8288847
H 1.3202533 -0.64448184 -2.3324144
H -1.540763 1.4121746 1.8139387
