10

C -0.49678585 1.05742534 -0.19346485
O -0.52848218 -0.07061423 0.58606352
C -1.48953606 -0.01611877 1.57274443
O 0.43824018 0.90471102 -1.08414694
C 1.28483663 -0.27228328 -1.16455565
O -1.64172447 -0.91910271 2.33350077
H 0.67869092 -1.16245255 -1.35073480
H -2.04532822 0.93417557 1.54408906
H 1.94582796 -0.06841699 -2.00433040
H 1.85426126 -0.38732336 -0.23916499
