13

N -0.6044876 -0.8611392 -1.4387051
C 0.44013256 -0.042312775 -0.83936787
C -0.08116929 0.5479573 0.48088887
N -0.5276623 -0.5316079 1.3496006
C 0.98705125 1.3189987 1.1374052
N 1.8212143 1.9410181 1.6377902
H -0.5134185 -0.8785994 -2.449714
H -0.51566553 -1.821965 -1.1293004
H 0.68526304 0.78276974 -1.5166332
H 1.3645457 -0.59940743 -0.62894326
H -0.88506496 1.259642 0.23435117
H -1.3467323 -0.944217 0.9124639
H -0.8240068 -0.171137 2.250164
