11

O 1.5910331 1.8841162 0.7793745
C -0.9032854 -0.64748037 0.20146266
N 0.9029911 0.24660587 -0.82127696
C -0.34038946 0.41397205 1.0882695
C -0.00094937545 -0.64464927 -0.98059714
C 0.7647622 1.0206496 0.55462843
H -0.90650576 -1.6674582 0.61803615
H -0.757654 0.68367475 2.0465088
H -0.06611361 -1.2820665 -1.8575498
H -1.9306617 -0.4671745 -0.15237875
H 1.6467729 0.4598104 -1.4764774
