12

N -0.57324495 2.65987796 1.05344776
C -0.41905197 1.80288335 0.29208896
C -1.11322463 -0.53566635 -0.39553456
C -0.23700603 0.67057077 -0.68019406
N 1.09598872 0.05393041 -0.53989487
C 0.97319870 -0.98948778 0.36155289
N -0.29510321 -1.31126968 0.42530231
H -2.12488935 -0.38398617 -0.03859150
H -0.36603143 1.08561108 -1.68551791
H 1.88142161 0.67918031 -0.41526545
H 1.79425726 -1.59410304 0.71827996
H -0.61631506 -2.13754089 0.90432647
