11

N 1.0411721 0.13192724 1.7677343
C 0.37350965 0.05930601 0.5403916
C -0.97139347 0.12856834 0.27353242
N -1.0551627 0.064729616 -1.1096596
C 0.20620294 -0.02484717 -1.5866126
N 1.0933263 -0.035605714 -0.62153536
H 2.0117319 -0.12733868 1.644482
H 0.62116987 -0.43192005 2.4948611
H -1.8464608 0.23074143 0.8955528
H -1.9000607 0.08706192 -1.6545049
H 0.42596492 -0.0826229 -2.6442413
