11

N -1.6064451 0.069954164 -1.246618
C -0.4751844 0.68915844 -0.92498314
C 1.4359498 0.268637 0.8337469
N -0.61938274 -1.0533197 0.43085277
C 0.14852317 -0.0104836775 0.12523411
N -1.6329787 -0.9482639 -0.41192254
H 1.4342201 1.2661164 1.2845149
H -2.392042 -1.6124644 -0.41525343
H 2.285734 0.21488033 0.14393727
H 1.5851325 -0.46878737 1.6232972
H -0.16352656 1.5845728 -1.4428062
