12

N -1.8149396 0.99207026 0.579894
C -0.70337546 0.28388432 0.22118619
N 0.49519444 0.43606383 1.0076586
C 1.4948541 -0.32632637 0.6038145
O 1.5236642 -1.2145076 -1.6960962
C 0.7901404 -1.1066009 -0.51825416
N -0.5672788 -0.5581031 -0.71581775
H -1.6572233 1.8989366 0.9894265
H 0.67809457 -2.1364238 -0.14614753
H 0.56652457 1.0855974 1.7794497
H 1.7419413 -0.3207497 -1.9900666
H -2.5475962 0.96615905 -0.11504737
