12

N -1.98994849 0.76000752 0.27745257
C -0.75642960 0.19549436 0.11767306
N 0.31634466 0.62644947 0.97889332
C 1.45237904 -0.01409043 0.77205318
O 1.85535740 -1.15838375 -1.37445244
C 0.99145071 -1.02445898 -0.29152018
N -0.40122620 -0.72204039 -0.68070155
H -2.00858148 1.72314569 0.57243654
H -2.63225054 0.53647689 -0.46946290
H 0.21053053 1.36764416 1.65865589
H 1.97391603 -0.28370984 -1.76656985
H 0.98845773 -2.00653473 0.20554226
