10

N 0.8038706 -0.15614834 1.680395
C -0.3786219 0.14127608 1.3657751
O -0.7921197 0.21221495 0.08683866
C 0.2156897 -0.0858676 -0.8725268
C -0.38542566 0.0384576 -2.2037103
N -0.8153344 0.12342528 -3.2742293
H 0.9159128 -0.15686433 2.69167
H -1.2175041 0.37782818 2.0259154
H 0.5964311 -1.1012479 -0.7262562
H 1.0571015 0.6069259 -0.7738718
