10

N 1.6430789 1.0700364 -2.2556777
C -1.388726 -0.39297783 0.1581064
O -1.0471345 0.65987784 -0.44475737
C 0.86831677 0.45473927 0.1492794
C 1.250653 0.8080339 -1.1997491
N -0.46866688 -1.0373626 0.7943964
H 1.5775899 -0.25934458 0.5553891
H 0.6942317 1.2964416 0.8087919
H -0.692767 -1.8859383 1.3021971
H -2.4365757 -0.7135057 0.13202403
