9

O -1.03039338 1.03562850 -1.80376023
C -0.29716644 0.23808948 -1.25503948
C -0.13031419 0.30942083 0.19612932
O -0.83995860 1.27127499 0.84532166
C 0.66141332 -0.55794930 0.80245661
N 1.50902587 -1.28944832 1.28138848
H -1.31808520 1.74063642 0.14162236
H 0.25944852 -0.54482287 -1.80053728
H 1.18603003 -2.20282965 1.59241847
