9

O -1.1177211 0.36735314 -1.0519977
C 0.074783504 -0.09176769 -0.51563597
C 0.48607656 0.741811 0.70266247
O -0.23332292 1.6244966 1.0983253
C -0.0029210453 -1.5036575 -0.06484483
N -0.05193958 -2.59159 0.31555244
H -1.4805954 0.9955077 -0.4029606
H 0.8793719 -0.029541524 -1.2628801
H 1.446268 0.48738834 1.1817789
