9

O 1.50583 1.3523983 0.8335308
C 0.8434074 0.8582864 -0.06538113
C -0.32383266 0.065876804 0.26832706
O -0.54620016 -0.15954916 1.5702155
C -0.894863 -0.76098347 -0.70948666
N -1.7141482 -1.3320143 -1.417001
H 1.0655869 1.0151781 -1.1356055
H 0.20538005 0.26384732 2.028084
H -0.14116049 -1.3030398 -1.3726832
