10

O 1.403476 0.22783297 -0.7818561
C -0.46733138 -0.069618784 0.17806956
C 0.52710086 1.0965587 0.06947656
O 0.29818687 -1.7988176 -1.2389076
C 0.5430383 -0.7559506 -0.55995005
O -0.94566786 -0.50311637 1.414547
H -1.8998471 -0.38583246 1.4122221
H 0.2664663 1.9806894 -0.51410514
H -0.7727924 -1.1347787 -0.97703016
H 1.0473706 1.3430336 0.9975339
