10

O 0.67698073 -1.4577096 -1.5085263
C -0.9441246 0.9183339 0.038851086
C 0.25307205 0.08388889 0.44663155
O 1.1903943 0.12471008 1.4388386
C 0.122811474 -0.52622086 -0.73657066
O -0.9746076 0.13266073 -1.2066497
H -0.7634658 1.9713374 -0.192801
H 0.8226001 -0.2863106 2.2330232
H 1.4999893 -1.7507241 -1.0978054
H -1.8836498 0.790034 0.58500856
