10

O -0.017852422 -1.3761665 -0.95742756
C -0.4054474 -0.38673994 -0.051560827
C 0.6874516 0.0079176035 0.9425619
O 0.63557374 1.386036 0.47187436
C -0.2613043 1.0727793 -0.5024362
O -0.6967911 1.7713815 -1.362834
H -0.6577404 -1.3939737 -1.6801988
H -1.3824077 -0.58430576 0.41262242
H 1.655425 -0.4447489 0.7236311
H 0.44309312 -0.052179802 2.0037677
