10

O -1.7663121 -1.1054957 1.2135313
C -0.8774465 -0.54803395 0.60205173
N -0.8661407 -0.13856725 -0.72222036
C 0.34529108 0.463731 -1.0525658
C 1.1132071 0.44706833 0.051134013
N 0.37471798 -0.16639021 1.0595376
H -1.6524892 -0.28488672 -1.3302928
H 0.54628444 0.84868646 -2.0401728
H 2.1136234 0.81457704 0.2132328
H 0.6692645 -0.33068895 2.0057645
