10

O 1.7352599 1.6773744 0.93539
C -0.087805875 -1.1467928 0.11111042
N -0.20116583 1.0399171 -0.29171118
C 1.0548301 0.7294613 0.61245346
C -0.82718825 -0.045867074 -0.5552148
N 1.0371605 -0.56330633 0.7949605
H -0.4354068 1.9742613 -0.597365
H -0.76753104 -1.6788938 0.7935194
H 0.21903875 -1.8865777 -0.644054
H -1.7271913 -0.0995761 -1.1590889
