10

O -2.35630009 -0.01513468 1.07111483
C 1.05299273 -0.02914766 0.47491677
N -0.81238186 0.03577139 -0.73874671
C 0.45998604 0.02581538 -0.88450781
C -1.17727138 -0.01783714 0.79598585
N -0.03180371 -0.05503831 1.42159681
H 0.96386275 0.05409201 -1.84516527
H -1.51404190 0.07570481 -1.46494964
H 1.71291369 0.84017691 0.61805219
H 1.70204373 -0.91440267 0.55170316
