9

N 0.04333606 0.6171059 0.99095494
C 0.40361267 0.18662676 -1.5308503
C 0.7353045 -0.38228709 -0.2563463
C -0.41198933 -0.72343856 0.608743
N 0.21543781 0.6313924 -2.5865273
H -0.2824441 -1.4706246 1.3888226
H -1.4071522 -0.7133084 0.16703291
H -0.46239647 1.3622595 0.5187906
H 1.166291 0.492274 0.69938
