9

N -2.1965907 0.3077798 -1.4308252
C -1.2773123 0.45079273 -0.74717444
C -0.10287043 0.62322617 0.08728706
C 0.47032213 -0.577789 0.754625
N 1.1746428 0.056432582 -0.34418342
H -0.034585536 1.5938516 0.5701164
H 0.9296719 -0.45748112 1.7314296
H -0.027975736 -1.5283397 0.5861003
H 1.0646979 -0.46847284 -1.2073753
