9

N -0.89595152 0.27644529 0.11586549
C -0.07924769 -0.45398736 -0.87940162
C 0.54770093 0.71257125 -0.21500367
C 1.39938267 0.40880357 0.88647498
N 2.10306140 0.22553309 1.79417134
H -1.63664148 0.89255101 -0.19474759
H 0.10161255 -1.48651263 -0.57490968
H -1.10929232 -0.22970475 0.97104249
H -0.43062451 -0.34569925 -1.90349174
