9

N -0.74360234 0.09916754 -0.5742798
C 0.27845672 0.81497437 0.3350213
C 0.15150738 0.32664925 1.6678057
C 0.7061729 -0.18258436 -0.6735835
N 0.027010722 -0.012117428 2.7734287
H -1.3193519 -0.66058856 -0.22169933
H 0.9339019 -1.2220215 -0.4301823
H 1.161974 0.16983539 -1.596621
H -1.1960694 0.66668534 -1.2798898
