11

C -0.00135005 -1.85572972 -1.03930496
C 0.01514386 0.14948331 0.10213782
N 0.56535910 -1.04645186 -0.00627706
C 0.34490645 1.24521033 1.04889102
C -0.93064823 -0.97207489 -1.49349262
O -0.92158458 0.26629917 -0.79283266
H -0.53418266 1.51603450 1.63991034
H 1.14477104 0.93051582 1.72404565
H 1.31951879 -1.36278288 0.58711306
H 0.67363321 2.13366093 0.50243793
H -1.67556705 -1.00416501 -2.27262863
