9

O -0.19382302 -1.9092101 0.75332516
C 0.2062758 -0.63513404 -2.36456
N 0.014165148 0.3744445 0.8413411
N 0.29532805 1.5507264 0.1692426
C -0.018370474 -0.70421916 0.18981034
N 0.1023878 -0.76653886 -1.1908809
H -0.045569137 1.5389003 -0.79027426
H -0.23615295 -1.7609491 1.709709
H -0.12424121 2.3119807 0.6822866
