11

N 0.564472 -1.4129713 -1.3630205
C 0.17560855 -0.4407612 -0.45004383
C -1.0231245 0.10331246 -0.10683695
C -0.71294504 1.1317265 0.855698
C 0.6273821 1.1215432 1.0121633
O 1.1875974 0.15741824 0.2105788
H 1.4338332 -1.8620125 -1.1057668
H -0.15998383 -2.0946684 -1.540091
H -1.9973739 -0.17356828 -0.4810413
H -1.4166723 1.7815689 1.3556262
H 1.3212062 1.6884127 1.6127341
