11

N -1.325389 1.6356302 -1.0322837
C 0.26389197 -1.3018134 0.028216908
C -0.6235931 0.7383435 -0.49095795
C 0.38950858 0.9388339 0.56436354
C 0.91228306 -0.24159826 0.87123835
O -0.67255014 -0.5985837 -0.7848163
H 1.682672 -0.45521045 1.6030384
H 0.616889 1.9146761 0.97276384
H -1.9494711 1.2411407 -1.7349387
H -0.27170053 -2.0487907 0.62481296
H 0.9774593 -1.8226285 -0.6214373
