9

O 0.87966161 -0.35359099 1.27422887
C 1.26299602 0.61030892 0.31247650
C 0.39008411 -0.51420670 -0.05225679
C -1.03222324 -0.32688669 -0.26916808
C -2.20952250 -0.18864258 -0.47879684
H 2.31056269 0.59071502 0.01671692
H 0.81875504 1.59626132 0.43786023
H 0.83424412 -1.35355539 -0.58747123
H -3.25455753 -0.06040287 -0.65358961
