9

O 1.2046007 0.66117483 0.7964141
C -0.44285402 -1.0199975 0.09097561
C 0.5885753 -0.06278402 -0.26256844
C 0.37979034 1.382531 -0.09820821
C -1.2944101 -1.8292689 0.35369456
H -0.56546265 1.7293551 0.3157762
H 0.8956677 2.0752313 -0.7609981
H -2.0505438 -2.5417745 0.59801763
H 1.2846367 -0.3944669 -1.0331032
