11

N -0.0709094 -1.6395756 0.13169801
C 0.20588991 -0.5733124 0.9302464
O 0.7913414 -0.6280092 1.9932605
C -0.24868982 0.7460653 0.35794124
C 0.25736564 1.1934633 -0.94235075
O -1.0689913 0.6978922 -0.80205154
H -0.73126477 -1.5281861 -0.62166667
H 0.1270148 -2.5614684 0.4917884
H -0.52665997 1.4854964 1.1061205
H 0.33319223 2.2614818 -1.1457205
H 0.93171114 0.54615235 -1.499266
