11

N 0.6526765 1.731365 -0.26260954
C -0.20051655 -1.312805 1.2952925
O -0.55687684 -1.8122866 -0.028495464
C -0.17176247 -0.50433093 0.12373333
C 0.12130899 0.5107209 -0.67292726
O -0.022234516 0.45567706 -2.0265715
H 0.723037 -1.7235363 1.701451
H -0.40287465 -0.40293938 -2.255076
H 0.7716084 1.7831006 0.73988193
H -1.0357934 -1.2455034 1.9929185
H 0.12142742 2.5205383 -0.607598
