12

C 0.98454565 0.08437382 -1.0170276
C 0.12689659 -0.63162386 0.919391
N 1.2737571 -0.06992449 0.2778888
C -1.2918849 0.38231876 -0.001093794
O -0.39246142 -1.6217805 0.33494794
H -2.0217705 0.0888969 0.75353634
H 1.4715676 0.86918324 -1.591374
H 0.13947627 -0.50883603 2.01202
H -1.0374357 1.4386911 0.08805109
H -1.672248 0.13187736 -0.9894171
H 1.8710338 0.5965357 0.7429551
H 0.5485238 -0.7597123 -1.5298781
