12

C 0.43320875 0.38024438 -0.39528692
C -1.04158251 -1.41603051 0.20033358
N -0.71796495 -0.00207618 0.34936752
C 1.26226266 1.48638384 0.07827735
O 1.67095640 0.13000286 0.23249805
H -0.20273085 -2.00159680 0.58701027
H -1.93095628 -1.65431558 0.78898072
H 0.96740567 1.98789163 0.99961263
H -1.22598571 -1.71782083 -0.84503691
H 0.42837611 0.13398820 -1.46382961
H -1.49453257 0.59966891 0.09234028
H 1.85154315 2.07366002 -0.62426698
