12

C -0.3503524 -1.1047671 0.97939765
C -0.25822735 -0.6291476 -0.46795693
N -0.26493296 0.82107306 -0.586179
C 0.8758479 1.5494703 -0.49524286
O 1.994244 1.0837368 -0.40604618
H -0.34680402 -2.1973944 1.0257661
H -1.2706437 -0.74544066 1.4558141
H 0.5056579 -0.7289531 1.5489123
H -1.0920928 -1.0182834 -1.0608995
H 0.6717206 -0.98305666 -0.9221115
H -1.1434888 1.3136755 -0.5396632
H 0.6790715 2.6390872 -0.531791
