9

N -0.28946388 -0.347399 -0.33612865
C -0.69159627 0.29420048 -1.4961627
N 0.8021568 -0.535555 1.62512
C 0.6385305 0.2067135 0.49870512
O -1.4866714 -0.16701923 -2.2763
H -0.19505103 1.2740242 -1.6096574
H -0.67261165 -1.2748857 -0.15296009
H 0.30857906 0.68930894 1.6048578
H 1.5861281 -0.13938826 2.1425254
