9

N 1.2680346 -0.15627411 -1.5630027
C 0.21933958 -0.02256771 -0.8625862
N 0.294154 -0.037740506 0.5224995
C -0.7847088 0.0922703 1.3641815
O -0.7150613 0.07504144 2.56801
H 1.0452143 -0.12498524 -2.551571
H -0.8004591 0.111454256 -1.234487
H 1.2099783 -0.15269625 0.94018406
H -1.7364916 0.2154978 0.81677103
