9

N 0.39859922 -0.05484816 0.24906927
C 1.73623536 -0.22713886 -0.09163935
N -1.76452175 0.23451822 -0.20143231
C -0.54771774 0.07359179 -0.72020175
O 2.61191158 -0.34489553 0.72578508
H 1.87646242 -0.23970778 -1.18224070
H -2.54472780 0.33612128 -0.82877520
H 0.22306347 -0.03498585 1.25726670
H -1.98930478 0.25734485 0.79216744
