10

C -0.34641954 -1.090055 -0.9911276
N 0.62228954 -0.4707206 0.80382615
N -0.90271664 -1.7573159 0.016184784
C 0.26654047 1.3219851 0.37685716
N -0.32741883 -1.3203185 1.1240304
N 0.64012176 -0.2910456 -0.5600661
H -0.6224318 -1.2058265 -2.0297067
H -0.17907353 1.7226217 -0.531731
H -0.41191787 1.3839161 1.2232653
H 1.2610264 1.7067591 0.56846756
