10

C 0.2579859 -0.6247417 -1.4348391
N 0.113255136 -0.06697462 -0.10601992
N -1.0269763 0.41243586 0.36288875
C -0.66372794 0.7847333 1.5778176
N 0.63921803 0.5397554 1.8285114
N 1.1151549 -0.0016531283 0.7462753
H -0.38154313 -1.502832 -1.5382732
H 1.3035463 -0.9038083 -1.5511922
H -0.020067034 0.12509578 -2.177729
H -1.3368456 1.2379893 2.2925603
