10

C 0.23130522 -1.29712282 -0.46025678
N 0.03388566 -0.00277797 0.16688716
N -0.38590895 2.06473345 0.62058433
C -0.43651032 1.15500191 -0.32386383
N 0.13289141 1.43834460 1.70135781
N 0.38934051 0.20880498 1.44548393
H -0.60464721 -1.51215263 -1.12736905
H 1.16701525 -1.30555641 -1.02327390
H -0.80043359 1.29665651 -1.33013056
H 0.27306228 -2.04593172 0.33058081
