10

O -1.6633885 -0.050678447 0.03779674
C -0.51290554 0.5804547 0.21366715
C 0.26204002 -0.21050641 -0.78458023
O 1.099525 -0.8454055 -0.034423493
C 0.56010824 -0.115593314 1.1606407
O 0.052461218 -0.5354632 -2.0149207
H -0.46745917 1.6866205 0.2226523
H 1.3572239 0.4914435 1.5891272
H 0.13233404 -0.84735996 1.8431482
H -0.81993914 -0.15351182 -2.233108
