10

O 1.3173423 -0.9129824 0.48948523
C 0.4063467 0.13769896 0.3642072
C 0.0065538073 0.44423437 -1.0779984
O -1.3898654 0.17844959 -0.7593329
C -1.0827103 -0.20538221 0.50744885
O -1.8053051 -0.6537041 1.3403165
H 1.3273053 -1.1983607 1.4111847
H 0.68930185 1.0243188 0.94916755
H 0.3892403 -0.28251886 -1.7961733
H 0.14179054 1.4682468 -1.4283054
