10

O -0.70911866 -1.0027558 -0.4471371
C -0.63888466 0.09297998 0.416092
C 0.6235759 -0.6750722 -0.9488798
O 0.42166954 -0.027686743 1.3151227
C 0.68900347 0.5171714 -0.010588692
O -1.812338 0.5985864 0.8141321
H 0.58056986 -0.40904626 -2.00784
H 1.22779 1.4523119 -0.07922362
H 1.3247535 -1.4903207 -0.7607803
H -1.7070208 0.9438319 1.7091027
