11

N -0.62615675 -0.7110821 -1.9415197
C -0.32332236 -0.27899367 -0.7992537
C 0.70713854 -0.87664837 0.1348386
O 0.43484795 -0.24656363 1.3728781
C -0.13098313 0.9904732 1.0480584
O -0.8465031 0.81238997 -0.17150193
H -1.3316905 -0.12640218 -2.3832622
H 0.58987266 -1.9569894 0.23963684
H 1.7201471 -0.6504846 -0.2249327
H -0.83022785 1.2830983 1.8323958
H 0.63687736 1.7612021 0.8926623
