11

N 1.7612773 -0.52528006 0.6407173
C -0.21139984 0.23437467 -0.1624505
C 1.0109437 -1.5433079 1.0173945
N -0.3075421 -1.7312511 0.8513223
C 1.154687 0.5219478 -0.032377105
N -0.906743 1.3402187 -0.8974609
N -0.96644104 -0.7637932 0.22079869
H -0.1022845 1.9735161 -1.068731
H 1.5055789 -2.3531106 1.5516412
H -1.6202883 1.8088088 -0.33938766
H -1.3177884 1.0378773 -1.7814671
