11

N -1.3256973 1.2382001 -0.40079802
C -0.16570555 -0.6154463 -0.9127027
C -0.24708939 0.36590457 0.081619106
N 1.3618191 -0.41658774 1.3746564
C 1.4789765 -1.3722906 0.4551067
N 0.7822549 -1.5447721 -0.6810236
N 0.42965207 0.52691895 1.1842371
H -2.1604724 1.2576524 0.18379825
H -1.0370995 2.1876397 -0.63464105
H 2.2549696 -2.103108 0.6678478
H -1.3716083 0.47588927 -1.3181
