9

N -2.5367937 -1.2830006 -0.4058113
C -1.0801277 0.5785782 0.16287489
C 0.2794795 0.41579863 0.10603735
N -1.7905477 -0.46506062 -0.15883498
N 1.004693 -0.66586083 -0.26609153
O 1.0786245 1.444543 0.42646247
H 0.48514882 2.1775095 0.6479319
H 0.55920076 -1.5570774 -0.3903274
H 2.0003228 -0.6454299 -0.12224136
