11

O 2.2875843 0.28961137 -0.6328322
C 0.16514392 0.8666904 -1.0377206
N 0.52593553 -0.6507997 0.6994475
C 1.0848151 0.09022689 -0.24582413
C -0.92715466 -0.4327132 0.6291355
C -1.041284 0.5590077 -0.5214989
H -1.4424262 -1.3791885 0.4291474
H 1.0000148 -1.2656316 1.3399895
H -2.017013 0.9250859 -0.82422364
H 1.6640781 1.0253959 -1.412945
H -1.2996942 -0.027685046 1.5773243
