9

O 1.92467987 0.55027271 -1.27459832
C 0.85781575 0.00455949 -1.33308567
N -0.34759300 0.61372141 -0.93852997
C -0.29896119 -0.35987992 1.30623923
C -0.86335894 0.50948895 0.20810194
O 0.63437766 -1.10298919 1.12446330
H 0.68564667 -0.98277339 -1.80254368
H -0.80827976 -0.28905073 2.28449848
H -1.78432706 1.05665066 0.42545449
