9

O 0.13117793 -1.5667641 0.64146745
C 0.0541274 0.81576616 0.6163358
N -0.23697214 0.98085135 -0.6000735
C 0.30107126 -0.53516775 1.2442282
C -0.29652297 -0.04944568 -1.5564753
O 0.6257899 -0.3508878 -2.2620916
H 0.62792915 -0.52160597 2.2998765
H 0.11196733 1.6901963 1.2696633
H -1.3185679 -0.46294254 -1.6529312
