10

O 1.0350913 -1.1364661 -1.0404634
C -0.8018995 -0.5602479 0.8554222
C 0.67915773 1.0777099 -0.35842884
N -1.1685463 -0.7278079 -0.37282217
N 0.0039050025 1.769051 0.5232902
C 0.17563872 -0.28358814 -0.42714107
N -0.776589 1.3731294 1.3346233
H 1.5636188 1.4334785 -0.8583706
H 0.519113 -1.8872541 -1.375989
H -1.2294899 -1.0580049 1.7198793
