10

C -2.30712179 -0.29395107 0.32488592
C 1.06766288 -0.85425262 -0.96778278
N 1.05853257 0.30262112 -1.45790123
C 1.14227705 0.15049492 0.06152698
C -0.02819238 0.54949089 0.88014107
N -1.20668928 0.19256497 0.56424695
H -2.94090294 0.26686502 -0.37021003
H 1.00514611 -1.88088583 -1.29901369
H 2.10444695 0.40223657 0.50087590
H 0.10484087 1.16481588 1.76323082
