10

O 0.31451650 -1.15418654 0.11212067
C -0.74103093 -0.52640062 -0.57672432
C 0.93548272 -0.15877577 0.88277104
O 0.70202933 1.08500258 0.23173264
C -0.35522319 0.94439687 -0.60243488
O -0.85023057 1.84479879 -1.20932960
H -0.81993332 -0.93290616 -1.58836687
H -1.70720551 -0.64536478 -0.06474780
H 2.00858638 -0.35324347 0.91925584
H 0.51300850 -0.10332095 1.89572333
