10

O 0.014598873 -1.1565236 -0.32538953
C -0.99827373 -0.17896023 -0.36091286
C -0.26407146 1.135595 -0.14726484
O -0.66840756 2.253088 -0.25588733
C 1.0904713 -0.5905861 0.37643445
O 1.0013185 0.82085055 0.21758099
H 2.0263023 -0.946038 -0.057817314
H -1.7451187 -0.31779087 0.4345206
H 1.0445418 -0.8211583 1.4499143
H -1.5013609 -0.19847673 -1.3311785
