10

O 1.0303936 0.7474702 -0.6564409
C -1.0013062 -0.23339117 0.1529283
C -0.29865003 0.5095707 -0.97961694
O -0.12506421 -0.4761293 1.2358813
C 1.52826 -0.07839859 0.28790355
O -0.76351714 0.8643575 -2.0192459
H 2.1841295 0.510394 0.9391486
H 0.6955894 -1.0803542 0.7870574
H -1.4249448 -1.1598591 -0.25504026
H -1.8248901 0.39634016 0.50742507
