10

O -0.95424538 -0.85421922 0.48062626
C 0.71058583 0.56882257 -0.37494669
C 0.20844229 -0.89103964 -0.37675581
C -1.06500292 0.43039234 0.88554039
N -0.22900269 1.29388918 0.49196079
H 1.72395984 0.66699038 0.02699875
H 0.91851407 -1.60263380 0.05175672
H -0.11319622 -1.24730101 -1.35849465
H -1.90590653 0.61809233 1.54692683
H 0.70585175 1.01700694 -1.37361238
