10

O -1.1350722 -0.44451708 0.62071896
C 0.061049514 -0.98756087 0.018474268
C 0.8335779 0.26326543 -0.45267597
C -1.026847 0.8967331 0.49508134
N -0.0123420125 1.4014384 -0.066594966
H -1.864049 1.4518697 0.9082379
H 0.5855601 -1.5693221 0.7804675
H 1.8129469 0.36079463 0.0263317
H -0.2468759 -1.6498905 -0.7943517
H 0.99205166 0.27718922 -1.5356889
