11

C 0.17136946 -0.57972527 0.31061015
C 0.71311605 0.7685453 0.3972607
N 0.3025047 -0.22093342 1.4975492
C -0.21250965 1.9122363 0.18077752
C -0.30992573 -1.6815083 -0.5458529
O -1.4126694 1.812388 0.29749456
H -0.6112736 -2.5382254 0.060204383
H 0.26679596 2.8683112 -0.11236067
H 1.7790655 0.95575976 0.28574967
H 0.47798887 -1.9751235 -1.2453716
H -1.1644622 -1.3217247 -1.1260608
