11

C 0.84609956 0.16059586 -1.3009565
C 0.2204579 0.64207363 0.50155646
N 0.83717406 1.2986398 -0.28610948
C -0.33037117 -0.519269 -1.5719142
C -0.31530467 0.08153264 1.7234194
O -1.3412087 -0.49395758 -0.8347801
H 0.49064326 -0.20681266 2.4048915
H -0.33694446 -1.0882598 -2.5175996
H 1.818047 0.045186147 -1.7576019
H -0.9461815 -0.7672177 1.4485083
H -0.9424115 0.8474886 2.190586
