10

O 1.78053777 -0.48799441 -0.42146735
C 0.46706274 -0.14339777 -0.17375501
C -0.35060582 0.24274338 -1.13911018
N -1.12983732 0.41799231 -2.06693487
N -1.06283075 0.29557633 1.62369190
C 0.05570180 -0.16601400 1.23509343
H -1.22777193 1.38055979 -2.38480163
H 1.81423377 -1.07712307 -1.18365977
H 0.81637863 -0.61839229 1.88394765
H -1.16286914 0.15605008 2.62699575
