11

N 1.57225 -1.2522852 0.3645458
C 0.26258025 0.5462014 -0.83426756
C -0.98788524 1.1558441 -0.45476803
C 0.513691 -0.38670254 0.12227163
C -1.3836076 0.5462634 0.682069
O -0.4664949 -0.40549326 1.0504477
H 2.0695705 -1.5054535 -0.47829533
H -2.2364488 0.6483218 1.3343304
H 1.2899058 -2.0720236 0.885751
H 0.8740963 0.7798902 -1.6925671
H -1.5076573 1.945437 -0.97951746
