11

N 1.3464975 0.5644868 1.8366761
C 0.64121926 0.26473302 0.8338662
C -0.7684649 -0.17837179 0.8549773
C -1.158509 -0.3950065 -0.39586645
C -0.012935273 -0.1054643 -1.3253967
O 1.0571333 0.2965867 -0.46942136
H 2.2848854 0.8457311 1.5535574
H -1.3286978 -0.28558543 1.7751695
H -2.1299882 -0.7272493 -0.7378636
H -0.23069388 0.70610833 -2.027825
H 0.29955348 -0.9859686 -1.8978732
