11

N -1.9956651 -0.5178377 -1.9177922
C -1.5761013 0.027291669 -0.9900436
C -0.9983631 0.69573706 0.1947147
O -0.3129623 -0.20588978 1.0291033
C 0.80407614 -0.8226474 0.4366417
C 1.8548547 0.15473728 0.0810636
N 2.6510744 0.94246495 -0.20224832
H -1.802336 1.1176457 0.8000792
H -0.34715128 1.5112404 -0.14613254
H 1.1953117 -1.519009 1.1797563
H 0.52726203 -1.3837333 -0.46514204
