14

C 0.05650541 -0.25077018 0.11281631
N -0.85166013 0.56560117 0.7487026
C 1.0533496 -0.83453095 -2.0437825
O 0.75590104 -1.0526803 0.71011084
N 0.06741341 -0.122943 -1.254393
C -0.8440895 0.679838 2.191179
H 1.1976033 -1.8220205 -1.6043833
H -0.58632857 -0.29401216 2.6087923
H -0.111135684 1.4135382 2.5523887
H -0.31368208 0.71971714 -1.6559693
H -1.8404279 0.9634406 2.539958
H 0.6827538 -0.94912446 -3.0650547
H -1.2902099 1.3058131 0.22579971
H 2.024007 -0.3218668 -2.0661647
