14

C 2.120537 -0.16642505 -1.1954943
N 1.1215998 -0.5429192 -0.21247669
C -0.03407864 0.20726128 -0.11864035
O -0.18844946 1.2733899 -0.6880882
N -0.99964505 -0.3697031 0.6866963
C -2.1557786 0.42480102 1.0629107
H 1.842124 -0.44952896 -2.2190678
H 3.07079 -0.6408255 -0.9402275
H 2.2481318 0.9161426 -1.1637323
H 1.0202067 -1.5359856 -0.056615863
H -0.652712 -0.99527514 1.4002466
H -2.9259849 -0.23646624 1.4648254
H -1.9220234 1.1965554 1.8078492
H -2.5447178 0.9189786 0.17181528
