11

C 0.08673163 0.38270956 -0.46111333
N -2.5667627 1.5643116 1.268233
C -0.8647963 1.4782399 -0.473281
C 1.0836785 -1.5627258 0.32199773
N 0.075469844 -0.5288162 0.42530718
N -1.7824389 1.5344716 0.45613068
H 0.8145251 0.41236824 -1.2814889
H 0.58814716 -2.5377085 0.2604251
H 1.7513235 -1.448055 -0.5464304
H 1.6875355 -1.5644755 1.2364428
H -0.87341297 2.2696805 -1.2062229
