10

N -0.29911394 -1.14827733 1.63892241
C -0.00487227 -0.47271874 0.61576370
C -0.97047279 0.43940054 -0.12007915
O -0.16486683 0.97141767 -1.18915194
C 1.04273190 0.41263452 -1.02514295
N 1.24452518 -0.40427541 -0.05976617
H -1.81681960 -0.09860866 -0.54998313
H 0.51053946 -1.68041092 1.95099983
H -1.32502933 1.26724503 0.49757257
H 1.78337827 0.71359334 -1.75913524
