10

N 0.18639651 0.37101933 1.9803226
C 0.77876025 -0.3863574 -1.2460881
C 0.18319131 0.118013695 0.7450942
O -0.5352885 -0.19905606 -1.4348375
C -1.0522923 0.15232214 -0.13707009
N 1.2853413 -0.23978637 -0.07908028
H 1.1296247 0.28267834 2.352631
H -1.5030826 1.1452223 -0.19595869
H -1.8020059 -0.5844821 0.15554449
H 1.329355 -0.659574 -2.1405578
