12

N 0.39412028 0.17040491 -1.5230273
C 0.87255013 0.09434961 0.707481
N -1.451589 -1.0690013 -0.6358887
C -0.11353695 1.1327391 1.0230424
C 1.3693217 0.12881875 -0.6777179
C -0.60241485 -0.026054623 -0.505247
N -1.0701005 1.157557 0.15034282
H -0.087444104 1.817714 1.8703287
H -1.0624716 -1.9050679 -1.0468072
H 2.412932 0.12169271 -0.9933446
H 1.4273854 -0.40265453 1.4969337
H -2.0887525 -1.2204976 0.13390404
