9

O 0.4908602 0.47634047 -1.7296422
C -0.081575096 0.31651723 -0.49324134
N -1.1703185 0.9924606 -0.25028348
N -2.1180124 1.5728345 -0.036064446
N 0.020941019 -0.58722854 1.7175806
C 0.5402807 -0.45892522 0.5591305
H 1.4888352 -0.90231586 0.23193383
H 0.61633694 -1.1632347 2.307878
H 0.2126518 -0.24644852 -2.3072917
