11

C 0.69178243 0.95877796 -0.15496645
C -0.04703397 -0.23302556 0.20475755
C -1.16104086 -0.80015695 -0.63240285
N 1.63813088 1.43822544 0.55644085
N 0.28977788 -0.83733924 1.31123681
N 0.58402799 -1.36303136 2.26922782
H -1.97995084 -0.07725027 -0.73654177
H 2.01013363 2.27638454 0.10984036
H -1.56885497 -1.71019413 -0.18649207
H 0.34710566 1.39527837 -1.10099229
H -0.80407826 -1.04766871 -1.64010798
