11

C -1.1347672 1.1435137 0.601572
C -0.2201571 0.030379348 0.20808676
C 0.7625209 -0.012653933 -0.7449295
N 1.2462096 -1.2751352 -0.6546765
N 0.6135707 -1.9751226 0.287751
N -0.27180162 -1.1954317 0.81284446
H -2.179245 0.85769 0.45536995
H -0.9344198 2.0383139 0.005976704
H -1.0051367 1.397065 1.6588417
H 1.1431485 0.71204656 -1.4478275
H 1.9800773 -1.720665 -1.1830091
