10

O -1.86015666 1.01834523 1.51546297
C -1.77274493 -0.02677571 0.92075649
C -0.72435174 -0.24846183 -0.10289595
N -0.35903222 -1.09644534 -0.94284122
O 1.99359913 -0.70128660 0.73268824
C 1.78781682 0.07521759 -0.16793419
C 0.44725631 0.20578880 -0.82468160
H -2.44870203 -0.88300434 1.07902317
H 2.57442243 0.75214628 -0.55558394
H 0.36189275 0.90447623 -1.65399396
