10

O -1.6705366 1.6708981 -0.8181761
C 1.4680631 -1.1430541 -0.36387485
C 0.24233323 -0.42214465 -0.5370992
N 0.04951504 -0.13826293 1.6783195
O 1.959658 -1.4898491 0.69770557
C -1.4159839 1.3353 0.30301386
C -0.30248797 0.32398108 0.5830264
H -0.38467872 -0.5409992 -1.4151492
H 1.9965165 -1.3041505 -1.3243192
H -1.9423987 1.7082813 1.1965533
