10

O -2.3874722 0.95940363 0.40978414
C -1.7695456 -0.056300864 0.6267816
C -0.35742456 -0.22417064 0.21280524
N 0.2734434 -1.341158 0.46575704
O 1.5361937 -1.1752732 -0.032150812
C 1.639432 0.048492186 -0.5786558
C 0.47224483 0.71664226 -0.462231
H -2.2137847 -0.9247706 1.1467404
H 2.6053631 0.28676853 -1.00418
H 0.20154989 1.710367 -0.7846508
