10

O 1.2413698 0.5113565 -1.7537464
C 0.47279546 0.084642634 -0.7361044
N -0.062422324 -1.0921682 -0.606947
C -0.7496732 -1.0251518 0.59143645
C -0.6128257 0.20296772 1.1638638
N 0.19109784 0.92332315 0.28633294
H 1.3036773 -0.23899056 -2.3610287
H -1.3035463 -1.8759325 0.9638884
H -0.988829 0.6354802 2.0783372
H 0.5083563 1.8744729 0.37396765
