9

N 1.3591251 -0.7118486 -0.9103459
C -0.7225545 0.5954277 0.43824938
O -1.3169557 1.6324689 0.6424292
C 2.2872653 -0.37964445 -1.6560576
C 0.47341266 0.600443 -0.423812
C 1.3905264 1.0335081 -1.1900898
N -1.0441647 -0.62272304 0.9329344
H -1.8798491 -0.69170004 1.4951164
H -0.5468056 -1.4559317 0.671576
