11

N 0.969633 0.46008268 -2.1404724
C 0.5793082 0.24043317 -0.95761454
C -0.7993779 -0.11819246 -0.64406
C -1.1519045 -0.33929613 0.62724376
C -0.12562963 -0.2065402 1.6411028
N 1.0953025 0.106194004 1.4151888
O 1.4629351 0.33358726 0.103104346
H 1.9612254 0.6956109 -2.164537
H -1.4797553 -0.18712482 -1.4840263
H -2.1623795 -0.6115121 0.91505104
H -0.34935734 -0.3732424 2.6890192
