10

O 0.44456756 -1.6960274 -1.1876087
C 0.22259012 -1.1449587 -0.05767629
C -0.5219183 1.1929132 0.87841856
O 0.013034206 0.6631993 -1.420597
C -0.11834158 0.2576229 -0.1976451
O -0.5953606 0.8291712 2.0319004
H 1.1484895 -0.36930022 0.40417862
H 0.20959325 -0.27970606 -1.858159
H -0.760457 2.2146928 0.5335413
H -0.042197224 -1.6676068 0.8736472
