10

O 1.9170629 0.27646226 -0.88356024
C -0.060788974 0.24103516 0.43050873
C 1.1500437 -0.39280552 -0.23352623
O -1.472602 -1.686391 0.19420731
C -1.3038479 -0.5150086 -0.035755407
O -0.14448385 1.596981 0.13486491
H 0.03916252 0.058870558 1.5141002
H 0.6344328 1.8009312 -0.4098299
H -2.0214875 0.103392474 -0.6109913
H 1.2625086 -1.4834676 -0.100018054
