10

N -1.2293458 -0.7066956 -0.29436752
C -0.62757045 -0.0062759263 0.6948127
O -1.1186297 0.2026514 1.7831278
C 0.7660544 0.556513 0.38065082
C 1.3070742 0.19182238 -0.9277091
N 1.682887 -0.12508827 -1.9717475
H -2.1428044 -1.0937515 -0.11306765
H -0.78754795 -0.881528 -1.1838527
H 0.70663923 1.6466506 0.46303543
H 1.4432436 0.21570201 1.1691177
