10

N 1.1375514 0.87819105 -0.10304016
C 0.48263803 -1.995727 1.5535817
O -0.6985597 1.5223551 -1.2800182
C -0.13054897 0.7444256 -0.5420712
C -0.88540536 -0.50041753 -0.06199405
N -0.15215948 -1.3329825 0.83004975
H 1.5680153 0.22300525 0.5289565
H -1.8045497 -0.1594842 0.42185983
H -1.169231 -1.0739615 -0.94827926
H 1.6522492 1.6945959 -0.39904505
