10

N 0.88375205 -1.4435166 1.1407415
C 0.6539618 0.37098303 -0.61111504
N -1.1413317 -0.5201558 0.46390986
O -1.5531758 0.63563573 -0.25051972
C 0.26377183 -0.61518466 0.40444827
C -0.45767415 1.0529444 -0.908601
H 1.6506001 0.5302583 -0.9942222
H 1.882761 -1.4146265 0.95065403
H -0.64029086 1.8736533 -1.5892031
H -1.5423741 -0.46999145 1.3939075
