11

N -0.12695663 1.1659334 -0.51589674
C -1.0288509 0.714049 0.3735675
O 1.6171277 0.8714567 0.5022441
C 1.013876 0.14041652 -0.37402058
C 0.25415528 -1.1005883 0.1704001
O -0.888833 -0.51715535 0.8433354
H 1.4792923 -0.051547248 -1.3609682
H -1.703159 1.360544 0.9401539
H -1.3324653 0.8241381 -0.89677644
H -0.11841165 -1.7766795 -0.607936
H 0.8342251 -1.630567 0.925897
