11

N -1.126619 -0.12332761 -0.13659398
C 1.1191604 -0.25581625 0.46143195
O 0.82208824 -1.5383834 -0.041853253
C -0.38762125 1.0319624 -0.6325323
C -0.19034904 -0.82382995 0.70053107
O 1.0051645 0.77006143 -0.466451
H 1.9643867 -0.16972968 1.1374551
H -1.4195645 -0.7350038 -0.8913683
H -0.6625545 1.914641 -0.044116728
H -0.5562173 -1.2947553 1.6075605
H -0.5678743 1.2241809 -1.6940631
