11

N -0.4098902 -0.55088276 -1.465395
C 0.19550748 -1.2959216 -0.6402687
O 0.7684211 -0.819116 0.47432658
C 0.6955466 0.5946264 0.63165843
C -0.7306005 1.0823281 0.8034648
O -1.0266786 2.2464352 0.7127515
H -0.7862487 -1.0959606 -2.234121
H 0.34341958 -2.3773885 -0.6909626
H 1.1554914 1.1152248 -0.21238533
H 1.2575545 0.8066934 1.5459629
H -1.4625226 0.29396147 1.0749681
