11

N -0.66853721 -0.39731830 -0.83566392
C 0.33777340 -1.04411479 -0.03749315
O 1.65973760 -0.49104113 -0.21989526
C 0.87890338 -0.05428833 0.86917373
C -0.89441428 0.88504260 -0.17893143
O 0.22495067 1.15271115 0.66451561
H -0.31802574 -0.27962381 -1.78061832
H 0.27226134 -2.11745806 0.11074672
H -0.98431396 1.71246159 -0.88856698
H 1.29307339 -0.18757551 1.86392166
H -1.80140854 0.82120451 0.43281101
