11

N 0.06529049 1.477407 -0.63675123
C -0.80206865 0.25978902 0.8664119
C 0.5176142 0.24520585 -0.9539071
N -0.71879816 1.4967728 0.46019256
N 0.089742035 -2.061201 -0.052933503
C 0.016191466 -0.6677968 0.037515227
H -1.3856953 0.008121111 1.7445488
H -0.3181937 -2.4417207 0.8023564
H 1.1699371 0.041944455 -1.7890147
H 0.33469108 2.352594 -1.0535516
H 1.0312895 -0.71111566 0.57513314
