11

N -1.1270044 -1.4368348 0.9189821
C 0.3536917 0.57654476 1.0926698
C -0.3984234 -0.509883 0.45072556
N 0.9238589 0.72232574 -0.9991236
N 1.0198013 1.2786399 0.24267022
C -0.12285674 -0.30405837 -1.0245396
H -1.0279092 0.04295065 -1.5384859
H 0.94298416 1.4215205 -1.7256218
H 0.22631304 -1.2238129 -1.5019182
H -1.1735156 -1.3775498 1.934679
H 0.38306016 0.8101576 2.1499617
