11

N 0.76668816 0.98318653 -0.90501438
C -0.42597086 0.13356737 -0.97874159
C 0.71298342 0.07149923 1.06675752
N 1.26752112 0.99744482 0.36372725
N -1.11250764 -1.59068503 0.64125608
C -0.36263179 -0.61357219 0.33749497
H -1.34898512 0.72342149 -1.04032746
H 0.73576659 1.90790274 -1.30624062
H -0.38255878 -0.54852113 -1.83233922
H 1.04501179 -0.13226805 2.07746999
H -0.89531705 -1.93197574 1.57595769
