11

N -0.8734754 0.9891458 -1.3419052
C -0.2805094 0.23862563 -0.31151393
C 1.0151733 0.30267453 0.15526396
N 1.0759461 -0.5580754 1.2098576
N -0.07741336 -1.1753188 1.4539309
C -0.9109962 -0.7001332 0.53954804
H -1.5594459 0.45772412 -1.8614407
H -0.19122939 1.3627363 -1.9867541
H 1.8705524 0.8773068 -0.16803579
H 1.8708805 -0.75801194 1.7923187
H -1.9394828 -1.0366738 0.51873076
