12

N -0.08398741 -0.23402216 -1.62995671
C 0.79140973 -0.79913686 -0.85452823
C -0.83883155 0.55629195 -0.77071138
N -0.71607621 1.04673620 1.73752274
C -0.38244022 0.45383332 0.51078572
O 1.74904288 -1.66435805 -1.22119677
N 0.68221473 -0.44076248 0.44651051
H 1.65183872 -1.77978563 -2.17528039
H -1.66831218 1.14550670 -1.13478725
H 1.31033339 -0.68064099 1.19606998
H -1.32124956 0.45852953 2.30090409
H -1.17394246 1.93780839 1.59466777
