12

N 0.026633937 -0.03640095 1.0453827
C 0.12640873 -0.046450015 -1.1813011
C -0.7233418 -0.12548034 -0.11477627
N -2.1012225 -0.3308794 -0.06892896
C 1.3012869 0.08576251 0.6938622
O 2.044919 0.18011697 1.7363002
N 1.4358774 0.08300521 -0.63918406
H -2.5324914 0.15407996 0.7085505
H -2.5604615 -0.08112475 -0.9345613
H 0.72807854 0.047193207 2.1457868
H 2.2998986 0.15779434 -1.1453127
H -0.045585666 -0.08761674 -2.2458181
