12

O 0.41570455 -0.39902329 -1.71733006
C 0.80275993 0.96820935 -1.48170738
C 0.12821623 0.76445267 -0.16478303
N -0.73314893 -0.23161345 -0.67794606
N -0.73376221 -1.20198047 0.33025902
C -0.24742619 -0.49049352 1.54831852
N 0.49108871 0.66332210 1.03856204
H 0.32426656 1.66067463 -2.18195816
H -1.07635156 -0.17759441 2.20171824
H 1.88448399 1.10184161 -1.43258408
H -1.68939237 -1.53328694 0.41618254
H 0.43356142 -1.12450803 2.12126862
