10

O -0.53505282 -0.35819143 -1.87682381
C 1.03300041 0.11320519 1.34886517
C 1.15519734 -0.21686580 -0.04822676
C -0.08377975 -0.17878663 -0.62660505
N -1.03304853 0.09325152 0.31716510
N -0.27204837 0.37550860 1.46552970
H -0.77434422 0.44229282 2.33544882
H 2.07637665 -0.48070236 -0.55471226
H 0.22597671 -0.51579169 -2.45051943
H -1.79227719 0.72607980 0.08987827
