10

O 0.5906381 -0.012173725 -1.8942145
C 0.8810793 0.5907785 0.50844616
C 0.29721546 0.013805368 -0.5857388
C 0.07625815 0.3160223 1.6714237
N -0.95342296 -0.35832527 1.1512524
N -0.8147737 -0.6846186 -0.2095711
H 1.8142512 1.1420335 0.5043535
H -1.6461264 -0.64436156 -0.789046
H 1.374458 0.534166 -2.0365863
H -1.619577 -0.8973266 1.6796811
