12

O -0.20535046 -1.7445472 -0.59702337
C 0.42802218 0.5241582 -0.075664446
C 0.4808207 -0.61933833 -1.098835
O 0.9431007 0.012093314 1.1395078
C -0.96969676 1.0760907 -0.05650741
O -1.4239022 0.95440215 1.1730379
H -2.321291 1.310828 1.1995738
H 0.2996286 0.22366667 1.8313046
H 1.0589526 1.3501052 -0.44461194
H 0.18641847 -1.9198134 0.2696218
H -0.010635457 -0.3161826 -2.0258527
H 1.5339323 -0.85146236 -1.3145512
