11

C -0.84287477 -0.74303544 0.06529466
N -0.43883187 -0.71923596 1.4557405
C 0.9808639 0.6753719 -0.66578275
C -0.037580106 -0.59184355 2.5505238
N -0.457023 0.42447764 -0.6692549
H 1.4883325 -0.16927516 -1.1437125
H -0.9599096 1.2280225 -0.3127023
H -1.9293456 -0.85522574 0.035595994
H 1.4021628 0.8074187 0.34062973
H -0.38788018 -1.626299 -0.39619023
H 1.1820859 1.5696244 -1.2601421
