10

C -0.7550757 -0.7751419 0.09583895
C 0.827046 0.88806117 -0.46929947
N 1.4987195 -0.006516882 0.3098271
C 0.6614016 -0.90415627 0.68058884
C -0.56415176 0.81352615 -0.3513659
N -1.3624835 0.21826777 0.7283598
H -1.190203 1.4024848 -1.020327
H 0.8246189 -1.5355599 1.5501863
H -1.2941636 -1.6243247 -0.3515122
H 1.3542918 1.5233599 -1.1722963
