10

C -0.80442284 0.70702994 0.39840882
C -0.89377927 -0.57991497 -0.32922378
N -0.37738934 0.58909719 -1.02273159
C 0.57361249 -0.47876369 -0.57996705
C 1.20065333 0.04624459 0.67520103
N 0.35518100 0.77949956 1.28562271
H -1.67947879 -1.22317050 -0.70405791
H 1.07944926 -1.03639758 -1.35878312
H 2.20953824 -0.14089436 1.02940531
H -1.66336395 1.33726941 0.60612548
