11

C -0.96493991 -1.43323302 -0.70520158
C 0.75528819 1.06221940 -0.48416447
N -1.24707458 -1.87201064 -1.73686753
C 0.24547456 0.30472375 0.71162390
C -0.58870739 -0.90616456 0.59732618
O -1.15094162 0.34362146 0.95937801
H -0.56393551 -1.65306448 1.38851026
H 1.77407644 0.74536178 -0.72685436
H 0.11569209 0.89835829 -1.35528808
H 0.84969688 0.37560656 1.61851140
H 0.77537095 2.13458151 -0.26697376
