11

N -0.08176898 -1.08185652 -0.14288257
C -1.14288633 -0.18022288 -0.53214265
O 2.07342760 -0.86932070 0.66079200
C 0.98975417 -0.41299417 0.37585536
C 0.52019480 1.03226824 0.49541846
O -0.85197395 1.01720015 0.15724268
H -1.14595532 -0.02059441 -1.62218971
H 0.01175272 -2.02075094 -0.49635655
H 1.10617593 1.65882221 -0.19230182
H 0.64914156 1.41281020 1.51209621
H -2.12786183 -0.53536168 -0.21553171
