11

N 0.41708544 -0.33559188 1.0659872
C 0.18115038 -1.1621273 -0.10623349
O -1.1725442 -0.8665432 -0.44302097
C -0.11404533 0.94002306 0.50344944
C -0.5274278 0.34192973 -0.85683924
O 0.6457181 -0.39529043 -1.2272502
H 0.6505753 1.7179149 0.41837987
H 1.4127592 -0.26871428 1.2577652
H -1.0092384 0.92602104 -1.6393297
H -0.96929246 1.3090408 1.0742891
H 0.48525995 -2.2066624 -0.047197357
