11

N -0.24592647 -0.9882818 -0.7508335
C -0.21460368 1.2230047 -0.05144493
O 1.9196137 0.17505747 -0.93162996
C -0.6717922 -0.7982943 0.5257233
C 0.84558606 0.14016646 -0.3717505
O -1.1142507 0.44188806 0.7499277
H -0.6840459 1.5281707 -0.9889303
H 0.2434935 -1.872314 -0.86454266
H 0.12749444 2.0726497 0.53950846
H -1.0263673 -1.5667404 1.209908
H 0.82079846 -0.3553067 0.9340644
