11

N -0.41647556 -0.5555477 -1.4584705
C 0.19650543 -1.2967951 -0.63926774
O 0.7738461 -0.81663626 0.47415993
C 0.6966958 0.59681976 0.6297454
C -0.7317691 1.082157 0.7986629
O -1.0341563 2.2430522 0.7048162
H -0.78459084 -1.1005142 -2.2311487
H 0.34380004 -2.378414 -0.6911103
H 1.1609409 1.1184446 -0.21202369
H 1.2545274 0.81291 1.5458411
H -1.4593235 0.2945232 1.0787951
