9

O 0.6107935 0.09391714 2.1698556
C -0.19931106 -0.92598355 0.060664557
C -0.04575232 0.9585383 -0.9919358
O 0.3746208 1.3008714 0.26608148
C 0.30804652 0.13748391 1.0204922
N -0.38424632 -0.24015984 -1.2093906
H -0.04917707 1.7737339 -1.7082455
H 0.5247858 -1.7417141 -0.028226413
H -1.1397598 -1.356687 0.42070463
