12

O 0.7097937 1.5312421 -0.7315617
C 0.62276256 -0.111467645 1.1766677
C -0.06910951 0.8511391 0.19961414
O -0.24790885 -0.76448566 -1.5407878
C -0.79005855 -0.41642156 -0.2891851
O -0.26772913 -1.1754899 0.79273015
H 1.6629801 -0.33128172 0.9075592
H -0.44361287 -1.6954331 -1.6959273
H -1.8870761 -0.46407557 -0.30648974
H -0.7369049 1.5653769 0.68568873
H 0.5436601 0.11234916 2.2436883
H 0.9032037 0.89854795 -1.441997
