12

O 0.74382577 1.52504500 -0.71038924
C -0.12245940 0.85557741 0.14849485
C -0.73286725 -0.45951917 -0.36465765
O -0.02619523 -0.83969803 -1.52123144
C 0.47331749 -0.03566256 1.24880098
O -0.32526991 -1.14974707 0.80880016
H 1.04634112 0.87034320 -1.36021818
H -0.86988062 1.56317774 0.51321134
H 1.54595993 -0.22554557 1.12162878
H 0.25316597 0.23083299 2.28581475
H -1.81675638 -0.55129376 -0.51558690
H -0.16918162 -1.78351007 -1.65466748
