12

O 1.0404695 1.0986913 -1.0113528
C 0.6001968 1.0152628 0.31937033
C -0.4463237 -0.09078668 0.44938982
O -1.4923251 0.18604149 -0.4443476
C 0.15849085 -1.4365261 0.11101328
O -0.32844898 -2.1407382 -0.7411718
H 0.23364055 1.137535 -1.5464509
H 0.1604538 1.9587661 0.67130905
H 1.473929 0.7928933 0.942408
H -0.80723983 -0.13505247 1.4905998
H -1.6387753 -0.63807654 -0.9374381
H 1.0459323 -1.7480099 0.6966709
