11

N -1.9862195 0.8924867 0.87363356
C 1.2564986 -0.197396 0.18631856
C 0.5166334 -0.63829744 -1.0441247
C 0.4085084 0.4055945 1.0113082
C -0.9292827 0.40736678 0.38415918
O -0.8278112 -0.21348932 -0.8307178
H 2.3159692 -0.37004954 0.33303952
H -2.7732003 0.7670744 0.23726143
H 0.53027 -1.7255207 -1.1766816
H 0.59158576 0.84296364 1.9844021
H 0.89704823 -0.17073306 -1.9585985
