12

C 0.90558285 -1.6993358 -0.7115118
N -0.6836144 0.40672576 0.5020032
C 0.5154152 0.62234706 -0.1610241
N 1.2529106 -0.34594217 -0.57603407
C -1.4683052 1.4101776 1.0123806
O -2.504567 1.2248231 1.6036999
H 1.7535508 -2.3714345 -0.725423
H -1.0405 2.4077046 0.81091917
H -0.9640015 -0.54357845 0.7182417
H 1.4885889 -0.6989083 -1.6211364
H -0.101387925 -2.0583503 -0.55919874
H 0.8463275 1.6457716 -0.29291663
