11

C -0.46127886 1.573115 -1.6455058
C 0.74259007 -1.7363938 0.84369624
C -0.66604984 1.4226784 -0.20369351
O 0.18913631 0.39369598 0.318678
C -0.3066636 -0.82532066 0.26735708
N -0.31750882 1.7097225 -2.7830937
H -1.7017726 1.1385314 -0.012127984
H 1.6209836 -1.2393281 1.2723379
H 1.0517675 -2.4183228 0.041223973
H 0.25200677 -2.3697827 1.594032
H -0.40321046 2.3514044 0.3070959
