11

C -0.5191316 1.1360828 0.47828153
C -0.12768237 -0.23126067 -0.03180231
C 1.2580508 -0.71364045 0.029315751
O 0.279488 -1.1792322 0.9406826
C -0.98927546 -0.77607447 -1.0787042
N -1.6801705 -1.171989 -1.9166962
H -1.5236528 1.1115323 0.9094781
H 0.18670677 1.4512457 1.2518411
H -0.5079514 1.8681207 -0.3343928
H 1.6099718 -1.4448297 -0.69534695
H 2.013647 -0.049955115 0.4473433
