11

C -1.32002510 0.78216763 -0.39354140
C 0.32689957 -0.36643955 0.77816145
C 1.82288806 -0.51643231 0.82988163
O 0.07248770 0.50657514 -0.17450476
C -1.88687634 -0.17740564 -1.34290108
N -2.35646071 -0.92307455 -2.08916247
H -1.84099631 0.69862619 0.56132421
H 2.12879858 -0.40258384 1.87788664
H -1.38906535 1.79265641 -0.80179160
H 2.05044855 -1.55805981 0.56948200
H 2.39190160 0.16397023 0.18516530
