12

N -0.56984866 0.2602508 -0.3270779
C 0.25578955 1.3415703 0.43328935
O -1.3413786 -1.9157917 -0.28141412
N 0.37238276 -1.2540046 1.1206372
C 0.6403791 0.8859637 -0.9166761
C -0.5627955 -1.1160765 0.16829243
H 0.73088807 -0.3648506 1.4899862
H 0.41196993 -2.1261837 1.6239405
H -1.4444814 0.44455117 -0.80842495
H 1.4709136 0.18704659 -1.0241481
H 0.3980009 1.411351 -1.8453336
H -0.36181983 2.2461734 0.36692914
