9

O -1.1340872 -0.9991432 -0.48706198
C 0.52452594 2.1445563 -0.52109814
C -0.47214982 -0.12605524 0.4214631
C 0.0720613 1.1072838 -0.11251571
C 0.09538686 -1.4320437 0.063621245
H -0.9708592 -0.032685917 1.3858635
H 0.9238985 3.060868 -0.89238113
H 0.03080078 -2.2548952 0.774628
H 0.9304228 -1.467885 -0.6325189
