9

O 0.368414 0.31711796 2.3775175
C -1.0437367 0.09506386 -2.0663238
C 0.39132127 0.48265043 0.07884594
C 0.37942275 -0.36822522 1.2737954
C -0.38215822 0.28996915 -1.0716022
H 1.3278735 -0.9659978 1.0147823
H -1.6169406 -0.08226754 -2.950583
H -0.38695264 -1.1744796 1.1710902
H 0.9627566 1.4061688 0.17247793
