11

N -0.18060191 -1.1317842 -1.2980028
C 1.2358307 0.550049 -0.11878497
C -0.15985338 0.07001461 -0.4786589
N 1.0988173 0.75147986 1.165245
C -0.84931386 -0.04316944 0.859556
N -0.12697044 0.40092057 1.816194
H 1.8084823 1.1146549 1.7842717
H -0.612127 0.9496257 -0.977361
H -1.8565497 -0.39920327 1.0436624
H 0.63756317 -1.1200409 -1.8961002
H -0.9952771 -1.1425469 -1.9000216
