11

N -1.3713434 -0.90595824 0.6153838
C -0.7580178 0.5729983 -0.759864
C 0.42120057 0.05707556 -0.08542938
N -1.8233289 -0.023985803 -0.30939123
C -0.024062907 -0.9900354 0.81905985
N 1.744967 0.23787035 -0.51599854
H 0.26620966 0.31591314 1.1395915
H 2.0553346 1.200219 -0.49776506
H -0.82077056 1.32836 -1.5333205
H -2.0640693 -1.4381697 1.1164552
H 2.3738809 -0.35428715 0.011278721
