11

N 0.30641752 -0.63581648 1.72547543
C 1.32164746 0.17375329 -0.25884178
C -0.66248587 -0.27641703 0.97300585
N -0.80313372 -0.14597901 -1.52709851
C -0.18532555 0.35874056 -0.31069129
N 1.46267204 -0.32845730 0.93948063
H 2.33922443 -0.56510251 1.38035423
H -0.31384788 1.45028463 -0.17290724
H -1.69017181 -0.39212961 1.29804662
H -1.63110512 0.38972189 -1.75888732
H -0.14389134 -0.02859837 -2.28793606
