11

N -0.69427395 0.40799326 1.985285
C 0.020646384 -0.2632049 1.0161494
O 0.73519486 -1.2166119 1.2450329
N -0.124528915 0.28213358 -0.25163817
C 0.52541834 -0.23034967 -1.3657838
N 0.40233698 0.35233283 -2.4874656
H -0.72969633 -0.08779381 2.8643067
H -1.5493557 0.8770982 1.723084
H -0.6183994 1.152808 -0.39079693
H 1.1008029 -1.12872 -1.1410737
H 0.931855 -0.14568517 -3.1970997
