11

N 0.29983342 -0.18794101 -0.40659797
C 1.2638899 -0.39733085 0.5787153
O -1.3025099 0.68602926 1.0346162
N 2.391733 -0.8819192 0.27080446
C -0.9271032 0.3372201 -0.14800021
N -1.9179896 0.5933368 -0.9626276
H 0.55917543 -0.4329548 -1.3506705
H 0.9117438 -0.10107825 1.5678617
H -1.950554 0.3945428 -1.9502643
H 2.9746132 -0.96936417 1.0990329
H -2.3028321 0.9594594 0.26712996
