11

N 0.5898714 -2.2345233 -0.0811382
C 0.016960172 -1.11878 0.11023128
O -1.171545 -1.0707427 0.74645597
N 0.3199842 2.424714 -0.4335445
C -0.20567235 1.3439301 -0.029020099
N 0.44757405 0.14146493 -0.2555071
H -0.2732821 3.2158082 -0.1980395
H 1.3289878 0.21042694 -0.74262667
H 1.4799899 -2.144516 -0.5628459
H -1.1520014 1.2287936 0.5018479
H -1.3808665 -1.9965754 0.9441868
