10

O -0.6176128 2.5295272 -0.22442318
C 0.5810311 -0.8359421 -0.6089694
N -0.5020981 0.5759388 1.1871905
C -0.5692343 1.391757 0.1334607
C -0.6089966 -0.06649807 -0.15826494
N 1.6297964 -0.881575 0.09968047
H 0.45681557 -1.3245653 -1.5835193
H -1.5776967 -0.48187575 -0.43468952
H -1.1456091 0.5170073 1.9578664
H 2.3536046 -1.4237744 -0.36833188
