10

O 0.65159501 2.42052560 -0.73945862
C 0.42781150 -1.10381757 -0.07618436
N -0.77502528 1.01330928 0.60478885
C 0.05057351 1.47024094 -0.33861627
C -0.40187458 0.06060562 -0.48494371
N 0.82735983 -1.22713162 1.11936171
H 1.40463097 -2.06007406 1.21875474
H -1.68831695 1.36234830 0.84056576
H -1.15040297 -0.13369022 -1.25259170
H 0.65364883 -1.80231624 -0.89167609
