10

O 2.3623931 -0.39582297 0.27450123
C 1.172938 -0.19682875 0.13610062
N 0.32998168 0.5704646 0.9252705
C -0.97296005 0.5520391 0.43564376
C -0.97583485 -0.22411302 -0.6634986
N 0.32578683 -0.6805823 -0.8488435
H 0.6618347 1.0638695 1.735853
H -1.7751489 1.0907422 0.9139935
H -1.7808392 -0.49322182 -1.3273376
H 0.65184855 -1.2865465 -1.5816826
