9

N -0.2615969 1.2189641 1.5199533
C -0.3678478 1.1578172 0.16633151
O -0.73830754 2.06874 -0.54202884
C 0.012421373 -0.1411906 -0.40948632
C 0.30108663 -1.163051 -0.97453415
C 0.6315361 -2.340767 -1.629879
N 0.90561837 -3.3221014 -2.1747868
H 0.04257697 0.4371509 2.077484
H -0.52548736 2.0844378 1.9669465
