9

N 0.867748 1.5415119 -0.017991405
C 0.6398528 1.8413119 1.2111623
O -0.040508147 -2.0332222 0.37708423
C -0.14063458 -0.8911717 -0.01507737
C 1.597412 0.4401056 1.5099562
C 0.7706689 0.17445648 0.4928526
N -1.0385281 -0.44175303 -0.92097396
H -0.9984733 0.4905499 -1.2988406
H -1.6575376 -1.121789 -1.338172
