11

O 0.9790087 -0.1962033 -1.3752342
C 0.54506105 -0.32093003 0.8204498
N -1.1973864 0.37514928 -0.5258514
C -0.50272834 0.83861995 0.68577117
C 0.15231784 -1.527608 0.30545676
C -0.10504546 -0.5389928 -0.7163695
H 1.5717051 -0.05176567 -0.19830906
H 0.00893314 1.793967 0.5671607
H -1.1544497 0.87030804 1.5639434
H 0.866664 -2.3270187 0.12808709
H -1.1640799 1.0844743 -1.2551045
