11

O -1.4725542 1.6303269 1.2686965
C -0.75161606 0.84161997 0.6924583
N -0.75944585 0.5577944 -0.65303963
C 0.22310251 -0.42752784 -1.0348889
C 0.8750646 -0.74387646 0.2889015
C 0.32331485 -0.02554849 1.2637677
H -1.3967013 1.0097673 -1.2849467
H 0.9488395 -0.031131037 -1.7557471
H -0.23585051 -1.319445 -1.479434
H 1.6776724 -1.46641 0.37609926
H 0.5681741 -0.025569437 2.318133
