12

N -0.40871059 1.52427891 2.20996597
C -0.27399928 0.65289295 1.46589448
C -0.84988296 -0.31238335 -0.75243552
C -0.06184027 1.79076098 -2.05238920
N 1.37581781 -0.63516801 0.19439968
C -0.02270119 -0.47159083 0.52847655
N -0.44924398 0.84443452 -1.48349941
H -1.91353657 -0.22268845 -0.51692278
H -0.68930464 -1.19590830 -1.37467128
H 1.72875492 0.19956833 -0.26394022
H 1.93258238 -0.78680800 1.02672120
H -0.36793571 -1.38738860 1.01840081
