12

N -0.925767 2.078798 1.788423
C -0.8567441 1.2742186 0.96274287
C -0.76140547 0.22157805 -0.06629956
C 0.39684662 0.47543502 -1.0842315
N 1.4856712 -0.40999386 -0.6810216
C 1.0042102 -1.1947122 0.19557218
N -0.34345257 -1.0556996 0.5101507
H -1.7328761 0.13209349 -0.56169474
H 0.07340935 0.21555743 -2.0957632
H 0.7267085 1.5176181 -1.0886391
H 1.5744181 -1.9891995 0.66816914
H -0.6410188 -1.2656934 1.4525921
