11

N 1.9167371 0.6233593 -1.2071817
C 0.88648283 0.26531845 -0.5664276
C 0.054348424 1.1202904 0.30192238
C -0.93353224 0.3816566 0.79653996
C -0.80554044 -1.0203114 0.27788007
O 0.35090655 -0.9924912 -0.55876684
H 2.3094435 -0.15335344 -1.7340031
H 0.26970825 2.1670523 0.46563178
H -1.7248302 0.6952744 1.4693139
H -1.6704173 -1.3310993 -0.32041237
H -0.65330654 -1.7556958 1.0755036
