12

C -1.1150872 -1.4305894 0.6646829
C -0.13931708 -0.15953954 -0.7360459
N 0.3036914 0.96737176 -0.050169952
N -1.3155762 -0.67143 -0.7202482
C 1.4719478 1.6311636 -0.34192026
O 1.826228 2.649549 0.20098469
H -0.28012308 1.386903 0.6614259
H -0.45087647 -1.0554287 1.4688697
H -2.1424904 -1.4328524 1.0273124
H 0.5955752 -0.56504923 -1.4449104
H 2.0483873 1.1269968 -1.1404043
H -0.8023594 -2.4470952 0.41042373
