12

C 0.92171151 -0.21955153 0.20914486
C -0.14285290 0.65942950 -0.30171248
N -1.20247756 -0.17770910 0.22261014
N 0.66626739 -0.05101199 -1.26038058
C -0.17362145 -1.15431943 0.70476633
O -0.31088129 2.00126260 -0.42927548
H -0.20907722 -1.27806251 1.78953189
H 1.36871652 0.60556494 -1.60873308
H 1.89519709 -0.02171999 0.63603971
H -0.80052619 2.30712569 0.34713223
H -1.80575854 -0.54476394 -0.51097821
H -0.20669715 -2.12624427 0.20185454
