12

C 1.0742366 0.1933186 0.78005224
C -0.3146875 0.59271353 0.3509937
N -1.0165737 1.5483807 0.80697596
N -0.90807384 -0.17145954 -0.6649528
C -0.39627627 -1.2468028 -1.3408704
O -0.99701035 -1.842114 -2.2038562
H 1.4159433 0.86050254 1.5743995
H 1.783469 0.25939223 -0.05197096
H 1.0937351 -0.83348924 1.1616036
H -0.5140565 2.044106 1.5378274
H -1.8442824 0.12160931 -0.9231349
H 0.6235766 -1.5261574 -1.0270671
