12

O -0.50960608 -1.52632749 1.61649174
C 0.40417118 1.50073734 -1.31429385
C 0.43374177 0.07937116 0.23737141
N -0.58059760 0.62102560 -1.53367596
N -0.57899813 -0.31775607 -0.54299133
C 0.80924266 -0.65992344 1.41790657
N 1.06206121 1.21299913 -0.21155410
H -1.21713297 0.54886059 -2.30956528
H 0.61106111 2.32208354 -1.98592225
H 0.85637392 -0.05444130 2.32146838
H -1.08066473 -1.28487896 0.81295392
H -0.20965219 -2.44175004 1.49181045
