12

O -0.044551972 -0.72247094 2.1629772
C 0.4900209 0.08549788 0.05784908
C 0.039396822 0.8269936 -1.8594259
N 0.99835044 0.85342807 -0.9586725
N -1.006161 0.108700395 -1.4320449
C 1.1840075 -0.22529696 1.2838221
N -0.736359 -0.39043704 -0.19073981
H -0.82856077 -0.69706815 1.518956
H 1.5453649 0.65022343 1.8206077
H 0.06254456 1.2993965 -2.8314328
H 0.15479815 -1.6570717 2.337038
H -1.8588506 -0.131895 -1.9089344
