10

O -1.5463886 -0.2660468 -1.4568264
C 0.64208037 -0.7484092 1.2320889
N -0.34915498 -1.0499023 0.39181975
C 1.0432212 0.6041803 0.6749438
C -0.57107484 -0.04048439 -0.577853
N 0.20128037 0.954527 -0.47508797
H -0.8962553 -1.8982344 0.42452562
H 2.0990582 0.58336735 0.38341883
H -1.5778066 0.49558482 -2.0553064
H 0.9550403 1.3654176 1.458277
