10

O 1.2596004 -1.5764904 0.7391885
C -0.33770356 0.90648407 -1.1740848
N 0.44137546 -0.23141216 -0.97379833
C 0.49832863 -0.5542516 0.34944993
C -0.79147947 1.0881383 0.17159691
N -0.23749442 0.19977844 1.1039699
H 0.9186608 -0.73781276 -1.7022382
H -1.5651984 0.60058534 -0.7262826
H 1.1790861 -1.6388413 1.7007016
H -1.3651752 1.9438219 0.5114971
