11

C 0.8047499 -0.010535238 -0.31634098
C 0.07999439 1.5451225 0.15025438
O -1.1217008 -1.5286803 -0.027532004
C 0.2529724 -1.3319033 0.1949523
O 0.005059754 0.5055677 -1.2092248
H 0.03777007 1.1843385 1.1902714
H -1.3287585 -1.0210043 -0.8257744
H -0.9217769 1.9042835 -0.09895859
H 0.86768603 2.2679703 -0.023127664
H 0.87205666 -2.0957024 -0.30517256
H 0.45194703 -1.4194571 1.2706529
