11

C -0.40975592 0.9160014 -1.1536671
C -0.07413778 -0.33187622 -0.37752625
O -0.053376123 -1.4367193 -0.87891495
C 0.2773299 -0.1853526 1.0920558
O 0.6488183 -1.4021018 1.6568731
H 0.51866287 1.3362432 -1.5608929
H -0.86866236 1.6817793 -0.51974237
H -1.0695388 0.6754598 -1.9905769
H -0.60091484 0.24448583 1.6039884
H 1.0849798 0.55917186 1.1821223
H 0.54659516 -2.0570915 0.94628114
