11

O -1.5436299 -0.49303007 -0.6398354
C 0.48049873 0.2398814 0.5023128
C -0.70961356 -0.70003444 0.47293583
C 0.4865546 1.6296537 -0.004455702
O 1.1532211 0.1337455 -0.8084528
H -0.43414676 1.6995951 -0.61085635
H -1.3133256 -0.50390244 1.3642532
H 2.0832183 0.36619318 -0.69481444
H -0.35037556 -1.7414442 0.5273624
H -1.0127326 -0.62705857 -1.4339403
H 1.1603315 -0.003599242 1.3254908
