11

O -1.121728 1.2497993 -0.48812225
C -0.61417437 0.73184085 0.7175423
C 0.46265045 -0.29835695 0.45501125
C 0.42704123 -1.1354166 -0.7402618
O 1.2813959 0.007936609 -0.66903186
H -0.3471025 1.4241914 -1.0433713
H -0.1960086 1.5267705 1.3563304
H -1.4465004 0.27136412 1.2588763
H 1.012459 -0.6528072 1.3279577
H -0.40665329 -1.0339653 -1.4312605
H 0.94862074 -2.0913568 -0.7436704
