11

O 0.4680405 -1.1798326 0.68289596
C -0.6210205 -0.017157784 1.4736757
C -0.61287504 -0.4364678 0.056450088
C -0.030287929 0.43770158 -1.0380411
O 1.0606829 1.2094103 -0.594914
H -1.4154665 -1.0867472 -0.29938382
H -0.016777312 -1.3268423 1.6345246
H 0.24396245 -0.19871177 -1.8949829
H 1.7026243 0.5947249 -0.21636699
H 0.02290547 0.8668724 1.5739864
H -0.80178803 1.1370502 -1.377844
