9

O 0.04384808 -1.3924603 -0.3091663
C -0.43546894 -0.26961315 -0.19797558
N -1.7034193 0.06145646 -0.51986253
N 2.2186375 -0.67106557 0.5413891
C 1.4524148 0.31316832 0.53242886
N 0.30567968 0.83659416 0.29728827
H -2.0240023 1.0047892 -0.40543297
H 2.4507613 0.7705707 0.9471192
H -2.308451 -0.6534395 -0.8857881
