10

O -1.8450595 0.9646286 -0.17058268
C 0.65211093 -1.0904866 0.36891836
C 0.5378028 1.2171465 0.22653091
N 1.2587851 0.1815316 0.6332225
C -0.58876735 0.47103977 -0.48164248
N -0.45404804 -0.9820057 -0.23471242
H -2.4936254 0.3879858 -0.591146
H 2.1367676 0.2741301 1.1247351
H -0.33767036 0.58883506 -1.5546608
H 1.1337048 -2.012805 0.6793373
