10

O 1.2062413 1.0197023 0.35553133
C 0.6740286 -0.64053804 0.49322084
C -0.75413156 -0.53117377 -1.0344489
N -1.079698 0.44986066 -0.18148583
C -0.21870735 0.43909168 0.9787607
N 0.31712648 -1.2132131 -0.69156945
H 1.4859625 -1.079432 1.0646044
H -1.3454694 -0.74687845 -1.9223671
H -1.9254767 0.995008 -0.23392187
H 1.6401242 1.3075726 1.1716758
