10

O -1.90157782 0.83784349 0.21417681
C 0.43516289 1.23868014 -0.31352585
C -0.76351370 0.29616802 -0.36032807
N -0.38674046 -1.01517495 0.21315812
C 0.85950911 -0.91991074 0.40683987
N 1.36508658 0.38358683 0.08867945
H 2.33725786 0.63347938 0.20464968
H -2.57851444 0.15097967 0.21592347
H -0.88690636 0.09400937 -1.44300987
H 1.52023626 -1.69966089 0.77343656
