10

O 0.21298523 2.2113006 0.39365435
C 0.11864452 0.8836348 0.16286282
C -1.0036086 0.19465017 -0.21476857
N -0.5691769 -1.1179832 -0.31228197
C 0.74443936 -1.1403359 0.0012265537
N 1.1943293 0.060166385 0.2952665
H 1.1294436 2.375007 0.6555289
H -2.0199406 0.49210477 -0.41277495
H -1.1358024 -1.9089916 -0.57164633
H 1.3286864 -2.0495527 0.002932865
