9

O -0.24306431 -1.2144643 1.7552878
C -0.1897272 0.12865849 1.3350009
C 0.11686909 0.26531157 -0.09955949
C 0.33958775 0.3316678 -1.2810526
C 0.59865093 0.41250515 -2.6391306
N 0.8136534 0.47945437 -3.7783155
H -0.91541475 -1.6738464 1.2382735
H 0.601442 0.5999626 1.9229943
H -1.1219968 0.6707508 1.546502
