9

O -1.7045066 -0.17659241 1.2801698
C 2.83678 -1.5075595 -2.1335874
C -0.7955112 0.76535225 0.7590694
C 1.1044455 -0.3791303 -0.7257994
C 0.2723132 0.16237806 -0.050736204
N 2.0210166 -0.9734473 -1.4673492
H -1.30582 1.5344703 0.15890796
H -0.36044532 1.2678705 1.6276013
H -2.0682724 -0.69334173 0.55172336
