12

N -0.4399949 -1.664794 2.3312585
C -0.34753177 -0.7716712 1.6053969
C -0.2529881 0.3611719 0.66292083
C 1.1525427 0.4796651 -0.009315701
N 1.0064498 -0.080281354 -1.3507885
C -0.2383472 -0.24392118 -1.5366359
N -1.0968436 0.15150864 -0.5106589
H -0.53430206 1.2747228 1.1951426
H 1.4503126 1.5311787 -0.083664134
H 1.9264643 -0.051750053 0.54882413
H -0.6660187 -0.6262805 -2.4610548
H -1.9597433 -0.35954893 -0.3914252
