12

N 0.2644216 0.2523493 -1.8860794
C -0.79831105 -0.1290815 -1.1395227
C -0.42976204 -0.58691394 2.4645195
C 1.3816477 0.73348504 -1.4708134
N -0.882462 -0.29815388 0.16929996
C -0.0147057595 -0.14887339 1.2020187
N -0.8005158 -0.9527366 3.5073552
H -1.7870544 -0.6501905 0.4648715
H -1.6893822 -0.39533943 -1.6977715
H 1.6468532 0.9725126 -0.44197625
H 2.1325343 0.96410096 -2.2255924
H 0.97673666 0.23884141 1.0536906
