11

C 0.19826844 1.0978155 -0.5485858
C -0.876182 1.0522135 0.9740158
C -0.016318627 -0.047818195 0.03351033
N -0.23286675 -1.2900331 0.27146918
N 0.34998578 -2.1559353 -0.6698325
N 1.2172015 -1.6336492 -1.3857726
H -0.72150594 2.1337004 0.98267704
H 1.0497196 1.7468096 -0.3591317
H 1.5241979 -2.397757 -1.9962496
H -1.9180375 0.8363437 0.74814487
H -0.5744624 0.65830964 1.9497551
