10

N 0.80340713 -0.16132411 1.679169
C -0.38031232 0.14023343 1.3642513
O -0.793439 0.21197282 0.08837203
C 0.21461374 -0.08520376 -0.87170875
C -0.385851 0.040361565 -2.2035263
N -0.8149123 0.12607846 -3.2736871
H 0.9219245 -0.158154 2.689428
H -1.217917 0.37963971 2.025304
H 0.59607506 -1.1006646 -0.7262434
H 1.056411 0.60706055 -0.7713595
