10

N 0.4462717 -1.2693938 1.2898083
C -1.1167835 1.3174429 -1.4184769
O 0.68560386 0.3681044 -0.28004512
C 1.1840551 -0.50075465 0.6131063
C -0.7333604 0.33692738 -0.39860925
N -1.4697931 2.0757005 -2.2163262
H -1.2045912 0.58551663 0.5573675
H 2.2743123 -0.40547302 0.6346194
H -1.0736029 -0.6609103 -0.69255215
H 1.0078882 -1.8471597 1.9111081
