10

O 2.12377837 -0.12653636 0.05600831
C 1.05097514 -0.29080894 0.58484546
C -1.26793298 -0.57151557 -0.21266042
O 0.12859934 1.21296870 -1.04492695
C -0.17340782 0.45162496 0.07754512
O -1.70774185 -1.29887794 0.64164415
H 0.89310190 -0.97357436 1.43757877
H -0.53213515 1.07667371 0.91337329
H -1.60088035 -0.59825946 -1.26987225
H 1.08564362 1.11830534 -1.18353546
