10

C 0.8204539 -0.093371466 0.7833328
C 0.44781634 1.1369803 0.26048675
N -0.5116325 1.2578161 -0.6579513
C -1.0939467 0.12534177 -1.0444126
N -0.82456774 -1.1074791 -0.6176726
C 0.13938174 -1.2034245 0.29898778
H 1.6016777 -0.18419679 1.529733
H 0.9289446 2.0587199 0.58443534
H -1.8781296 0.21578886 -1.7930415
H 0.3700023 -2.206175 0.6561028
