10

C 1.19066639 -0.65270418 0.09180389
C -0.40855045 1.29154067 0.07750152
N -1.13776769 0.68543280 0.94162978
C 0.14848263 0.11340085 -0.69403526
N 0.43839516 -1.23498577 0.95380879
C -0.75341217 -0.61450923 0.32099412
H 2.27487098 -0.72625083 0.02326834
H -0.27189109 2.36800966 -0.01125281
H 0.09354504 0.05986391 -1.78011368
H -1.57433874 -1.28979780 0.07639579
