10

O -0.97991895 -0.39031968 1.50878281
C 0.31102013 -1.35500951 -0.38469834
C 0.01154484 1.16214401 0.10031303
N 1.74730972 1.78200706 -1.47623084
N 0.93197500 1.50449924 -0.73821831
C -0.33552592 -0.26254977 0.28465976
N -0.83069035 -1.07419906 -0.86826404
H 1.10396174 -2.07404364 -0.55944296
H -0.51596528 1.94675938 0.62104448
H -1.44371069 -1.23928792 1.51205437
