12

O -1.8744138 -0.6987339 -1.7534859
C -1.2456087 -0.9629252 -0.53706557
C 1.5253738 0.7514363 1.2016786
O 0.11074695 0.9370332 -1.0408007
C -0.15071091 0.04519233 -0.27065808
O 0.47266245 -0.17164123 0.8918716
H -1.9615946 -0.9227813 0.2967564
H 1.1358805 1.7706716 1.2555408
H 2.3095124 0.7042693 0.4425978
H -0.7958059 -1.9662645 -0.529238
H 1.9093845 0.4356233 2.1702857
H -1.4354266 0.07812004 -2.1274827
