9

N -1.15579748 0.12603608 1.02760374
C -1.47627117 -0.25577791 -0.28417211
C -0.32706396 0.80263057 0.01021146
C 0.89007089 0.23665727 -0.19023675
N 2.00544856 -0.24495426 -0.29378617
H -0.48332915 1.85555462 -0.19955339
H -0.62830519 -0.53631336 1.61347425
H -1.10333919 -1.27049821 -0.52963179
H 2.27858655 -0.71333464 -1.15390908
