9

N -2.1958525 0.30712953 -1.434922
C -1.2755777 0.45015383 -0.75013834
C -0.1024734 0.6235222 0.086448126
C 0.47026727 -0.576952 0.7557488
N 1.1747496 0.056315824 -0.3435032
H -0.033469 1.5944759 0.56998396
H 0.9271857 -0.4562178 1.7347522
H -0.027128898 -1.5286472 0.5870407
H 1.0622988 -0.46978015 -1.2054101
