11

N 0.3536197 -1.4297667 1.2016249
C -0.16219284 0.32434297 -1.6538608
C 0.0959399 -0.27561173 0.68797165
N 0.1734727 -0.24281804 2.135132
N 0.02871768 -0.866426 -2.0764582
C -0.13781416 0.66898865 -0.24837598
H -0.6751409 -0.24364528 2.6900818
H -0.03192856 -0.8833583 -3.0899773
H 1.0136507 0.08392741 2.6005728
H -0.3570779 1.1748389 -2.3237395
H -0.3012463 1.6895282 0.07702797
