11

N -0.37041388 -0.49623812 2.06503838
C -0.11661548 -0.36016564 0.64432360
C 0.28486141 0.52267824 -1.58506205
N 0.35040266 -0.63068171 -2.13135070
N -0.19661567 -1.59004871 1.02287326
C 0.04602562 0.70529906 -0.16930443
H 0.38445747 -0.40250278 2.73636522
H -1.31003498 -0.37832816 2.42742554
H 0.52316928 -0.52819213 -3.12675676
H 0.40624671 1.46058306 -2.14689934
H -0.00148318 1.69759660 0.26334703
