11

N -0.73353535 -0.75999403 1.5583457
C -0.19441578 -0.13164464 0.42066696
C -0.12870815 -0.61015004 -0.87035626
N 0.40395063 0.39491773 -1.6172783
N 0.6913141 1.4829439 -0.905276
C 0.3311029 1.1778859 0.33293045
H -0.2263056 -0.52828187 2.4019618
H -0.77013165 -1.7656064 1.4621991
H -0.4143877 -1.5583861 -1.3026177
H 0.5878898 0.39341515 -2.606469
H 0.45322677 1.9049001 1.125893
