12

N -1.0729529 0.1468724 0.4561397
C 0.28682652 -0.4797212 0.16946606
C 0.5554941 0.60479474 -0.8521983
N 0.1397093 1.904626 -0.3392617
C -0.8202178 1.567391 0.41903728
N 0.9737536 -1.5419208 0.73588055
C -0.6397859 -0.31761044 -0.89315796
H -1.1805366 -0.94183475 -1.5908661
H -1.4255944 2.2403324 1.0174373
H 1.3882993 0.5334946 -1.5443375
H 0.43375653 -2.3959072 0.7757244
H 1.361248 -1.3205163 1.646136
