12

N 1.04499748 -1.23218614 1.12113063
C 0.29013907 -0.40604747 0.30342294
C 0.28335449 0.02179476 -1.14883742
N 0.16083039 1.47072676 -1.25431796
C -0.51389580 1.73095194 -0.21161367
N -0.84541103 0.57202330 0.58217898
C -0.92274229 -0.52638444 -0.42355581
H 1.72911766 -0.72465544 1.67079326
H 0.48682362 -1.83339625 1.71228669
H 0.83006856 -0.53485420 -1.90312553
H -0.83305842 2.71667897 0.11070760
H -1.71022353 -1.25465178 -0.55906935
