12

N 0.85586613 -1.7402805 0.56624866
C 0.2672416 -0.5466736 0.16876999
C 0.93058413 0.39031962 -0.62365985
N 0.3483065 1.5055346 -1.0587245
C -0.9172143 1.6986161 -0.6995003
N -1.6513175 0.8848668 0.05563204
C -1.0559087 -0.22315158 0.48242936
H 1.8640394 -1.7351325 0.6086993
H 0.44414344 -2.1798081 1.376739
H 1.9671602 0.23372537 -0.92160475
H -1.399156 2.6043541 -1.056094
H -1.6537447 -0.8923703 1.1010654
