11

O 2.27499172 1.13898122 -0.47938040
C 0.73844864 -0.76688685 -0.57692773
N 0.05059110 1.17791637 0.41161846
C 1.27244359 0.46912359 -0.33213784
C -0.96136728 0.41027359 0.53311723
C -0.65801896 -0.91447428 -0.07612161
H 1.27717214 -1.55297359 -1.08188527
H 0.11988268 2.13423851 0.73814410
H -0.80329801 -1.68752901 0.69482622
H -1.88943615 0.70755944 1.01357538
H -1.42140945 -1.11622909 -0.84482865
