11

O -2.274478 1.039188 0.52902436
C -1.1763266 0.5207438 0.39104846
N -0.84065413 -0.21620418 -0.8200321
C 0.41261274 -0.68329567 -0.81932425
C 1.0128165 -0.23619041 0.4189343
C 0.02139776 0.46099532 1.1563274
H 0.8385225 -1.3311644 -1.5724801
H -1.4680098 -0.21115066 -1.6091399
H 0.1542703 0.9401332 2.1128767
H 1.3921509 0.38874838 -0.59593976
H 1.9276975 -0.67180353 0.8087051
