10

N -0.9680474 1.0094593 -1.2328045
C -0.43209848 -0.14292231 -0.7568345
O 1.4347526 -0.3493304 2.1307316
C 0.90948594 -0.8747922 1.0985103
O -0.52627593 -1.2265928 -1.2980133
N 0.26815394 0.06272016 0.4483364
H -1.549613 0.94886184 -2.0521038
H 0.8174446 0.6390815 1.5314317
H -0.94585544 1.8587981 -0.69517106
H 0.99205333 -1.9252832 0.8259174
