10

N -1.7784785 -0.110609375 -0.8542806
C 1.3090228 0.088745564 0.62213266
O 2.5918412 -0.19175582 0.42024338
C -0.90765464 0.19086097 0.1418356
O -1.2147563 0.7061846 1.1965512
N 0.4178634 -0.18054228 -0.24038973
H 1.1246573 0.56050503 1.5854533
H 2.6558251 -0.6025644 -0.45711562
H -2.7527897 0.088492155 -0.7195957
H -1.4455311 -0.54931647 -1.6948345
