10

N 0.46693481 -0.21120616 0.04854294
C -0.90648236 0.06250689 -0.23401870
O -1.49971470 1.07239578 0.08299025
C 1.07195046 0.71727742 0.66700895
O 2.35336114 0.62012047 1.00407059
N -1.45359590 -0.97311969 -0.91929997
H 2.66398421 -0.24275114 0.68535077
H -0.89689752 -1.78195265 -1.13313378
H 0.62207623 1.65847328 0.97732788
H -2.42161647 -0.92174410 -1.17883893
