10

O -0.18599371 -0.72671639 0.67273034
C -0.33913927 -0.95181573 -0.71540347
C 0.82654909 0.20888980 0.94392427
O 0.20929625 2.57262091 1.35200042
C 0.49196248 1.46228864 1.13649865
O -0.76111008 0.18786545 -1.39138779
H 1.85553575 -0.12432584 1.02800857
H 0.61864819 -1.24558896 -1.15202492
H -1.06007605 -1.77815160 -0.78159209
H -1.65567245 0.39493352 -1.09275410
