10

O 0.020691248 -0.61530006 0.7976554
C 0.9869338 0.39965597 0.6957357
C 0.59825134 1.6501019 0.76889765
O 0.27677944 2.7658072 0.8739522
C -0.40269542 -1.0710015 -0.4728243
O -1.05031 -0.07855079 -1.2005085
H 2.0344083 0.13454656 0.59862465
H -1.0506839 -1.9307921 -0.25411722
H 0.4623461 -1.385638 -1.0618955
H -1.875721 0.13117124 -0.7455201
