12

N 0.0016990353 1.0332081 1.8569629
C 0.124959394 0.99328774 -0.6405487
C 0.076358184 -1.2107397 -0.83861285
N 0.16783535 -0.08803044 -1.563863
C 0.017148731 0.43627474 0.6006676
O 0.06382637 -2.4819686 -1.0249624
N -0.0196939 -0.9392738 0.45673716
H -0.55301243 0.5103054 2.5222929
H 0.19144732 2.0206206 -0.9647172
H -0.29696402 1.9987899 1.8280203
H -0.0254482 -2.2416081 0.3316882
H 0.25184414 -0.030865636 -2.563665
