10

N -2.18041933 -0.52309531 0.12077660
C -1.02130090 -0.06569183 0.19264480
O -0.36873637 0.83200088 0.93208619
C 0.98673532 0.97057907 0.76204466
C -1.11012046 -0.99933485 -0.88665070
N 1.68907587 0.14109374 0.13775422
H -0.71433672 -2.00675357 -0.76873373
H -1.23362514 -0.65953316 -1.91423780
H 1.28709111 1.89011394 1.27257451
H 2.66563667 0.42062107 0.15174163
