10

C -0.16187036 0.80867016 0.13916472
O -1.1448107 -1.5378649 -0.60598844
C -0.7631501 -1.403878 0.52416146
O 1.89476 -0.21598841 -0.5623634
C 1.1109742 0.6893765 -0.6708951
O -0.28411797 -0.26410463 1.0567843
H -0.1288038 1.7261479 0.7340014
H -1.0241318 0.84840757 -0.5362854
H 1.2744321 1.5288098 -1.3799472
H -0.77328146 -2.179576 1.3013678
