10

C -0.74057904 0.31431369 -0.22861727
O 0.63423483 -1.87178976 0.37012332
C 0.34577440 0.93178754 -1.08250450
O 1.46071487 1.15728645 -0.69283421
C 0.43838883 -1.05852655 1.23099694
O -0.27753178 0.07258492 1.08856547
H -1.09373784 -0.61141367 -0.69724766
H -1.57634461 1.01482137 -0.14216282
H 0.02157888 1.17762999 -2.11622611
H 0.78750156 -1.12669392 2.26990658
