11

N -0.84227739 -0.81619657 -1.29557253
C -0.46262724 0.49904042 -1.06866307
C -0.80172354 0.97628633 0.34766393
O -0.01845689 0.08395387 1.15445639
C 0.48969794 -0.63849496 -0.96722413
C 0.78882970 -0.91405657 0.51377019
N 0.88486533 0.62030833 -1.37667090
H -1.86080216 0.84444535 0.57939987
H -0.47617972 2.00387782 0.52438720
H 0.45974955 -1.90890066 0.82202913
H 1.83892426 -0.75026341 0.76642389
