11

N -1.9993012 -0.5207671 -1.9143738
C -1.577274 0.025756383 -0.98882633
C -0.99962395 0.69581056 0.19542943
O -0.31248525 -0.20599885 1.0285532
C 0.80473715 -0.8226329 0.43660146
C 1.8555486 0.15592043 0.07916665
N 2.6510923 0.94493943 -0.1991353
H -1.8021002 1.1207943 0.7999968
H -0.3456587 1.5104553 -0.14665276
H 1.1971223 -1.5212225 1.1772211
H 0.5279428 -1.3830551 -0.46798047
