10

N -1.7213095 -0.43000942 -0.1952223
C 0.7650417 0.15268745 0.26601756
N -1.0966682 -0.0056827804 -1.5176761
O 0.23187217 -0.40357026 2.5060883
C -0.48025638 -0.094169825 -0.20751342
C 1.0401124 -0.037135337 1.6749599
H -0.96172136 -0.7463204 -2.1965933
H -1.4007515 0.8905406 -1.8830423
H 1.5340655 0.48928785 -0.41798648
H 2.089615 0.18437204 1.9709684
