10

N -0.31761634 -1.003199 -1.5101168
C -0.07671682 -0.44158342 -0.26759404
N -0.034560796 -1.1736836 0.8154185
O 0.31382504 -0.30532312 1.8408401
C 0.45231372 0.923102 1.3360041
C 0.22286737 0.9310356 0.0029171323
H -0.88153 -0.42875376 -2.1185787
H -0.67125154 -1.9488775 -1.450818
H 0.72285485 1.6921823 2.0435684
H 0.26981458 1.7551005 -0.69164085
