10

N 1.4193808 0.25579083 -0.47129542
C 0.5833043 0.3835504 0.46212128
N 0.44084477 0.53106266 1.786975
O -0.5388556 -1.9403646 -0.79204464
C -0.06912937 0.39202258 -0.82529724
C -0.75053054 -0.85505116 -1.2824482
H -0.37884587 1.3241781 -1.2954261
H -1.4717519 -0.7229576 -2.1148076
H 1.2353317 0.29265627 2.3601954
H -0.46974808 0.33911276 2.1720276
