9

O 1.4757673 1.4300834 0.10434786
C 0.42896816 0.5881803 0.052649166
N -0.84592193 1.0122398 0.1963165
N -0.8820895 -1.0819592 -0.09640824
N -1.6426258 -0.013806562 0.10488248
C 0.44203383 -0.7712022 -0.13971007
H 1.2255409 -1.4944609 -0.291055
H 1.118477 2.3154523 0.2630853
H -1.32015 -1.9845265 -0.19410804
