12

N -0.61447599 -0.58049546 -0.53085705
C -1.03936256 0.32386716 0.44000798
N 1.16576896 0.34957713 0.36627425
C 0.02387312 0.95587938 0.94231001
O -2.35041061 0.43324813 0.76694322
C 0.77554653 -0.59288145 -0.57750369
N 1.43463098 -1.36564689 -1.35155540
H 0.08853644 1.72636968 1.69170081
H -2.85480314 0.63607853 -0.03172339
H 2.05371414 0.81349320 0.28095483
H 2.43253229 -1.29212016 -1.18808627
H -1.11555112 -1.40736903 -0.80846538
