12

N 0.60413013 -0.62231682 1.39778029
C -0.12161526 0.55934057 0.99700306
O 2.03183121 -2.23801104 0.39987168
N 0.08507703 -0.01715073 -1.36492531
C -0.86344031 0.35376077 -0.32415620
C 1.31954183 -1.40312613 0.81044713
H -1.57690012 -0.46878618 -0.20485996
H -0.83712120 0.81409468 1.78481892
H -1.43946000 1.26816605 -0.54239831
H 0.60069047 0.79108132 -1.69978569
H -0.38065719 -0.43962504 -2.16005684
H 0.57792344 1.40257264 0.90626133
