12

N -0.2903049 -0.8365849 1.7678082
C 0.098995045 0.29181552 1.0863483
O 0.84942 1.1316732 1.5336379
N -0.49447748 0.3762572 -0.18509151
C 0.26900232 0.9374322 -1.2738712
C -0.07001751 -0.5128932 -1.2568372
H -1.1424754 -1.2908568 1.4768974
H -0.10585326 -0.81732464 2.7594345
H -0.27647558 1.6144122 -1.9257345
H 1.2971271 1.2184232 -1.0560945
H -0.8683958 -0.898255 -1.8873366
H 0.7334555 -1.2140989 -1.0391607
