9

O -0.69111574 1.1158183 -0.3055088
C 0.5103579 0.56111306 -0.93582046
N -0.17183292 -0.60480297 0.9888765
C -1.001361 0.37873536 0.7360186
C 0.7914005 -0.55477506 -0.106928125
O 0.98029006 1.0859977 -1.9068316
H -1.8926322 0.6123918 1.3020623
H -0.2323005 -1.4777515 0.26531306
H 1.707194 -1.1167266 -0.037181426
