9

O 1.23450207 0.32906687 -1.86354684
C 0.59087620 0.25055630 -0.86535689
N -0.70570625 -0.37513436 1.01576524
C -0.06601837 -0.93070936 -0.16863674
C -0.45480400 0.86412576 0.97740381
O 0.29077298 1.34694264 -0.06768167
H 0.67971763 -1.68604032 0.09934852
H -0.79836717 -1.40987551 -0.82549904
H -0.77097302 1.61106785 1.69820367
