11

C 0.50919396 -0.9645616 1.5000519
C 0.16627198 -0.12470582 0.31888026
N 0.63555795 1.0345045 -0.008449269
C -0.032250416 1.3602463 -1.1813569
C -0.8780398 0.3611855 -1.4994345
O -0.76157373 -0.6056416 -0.5410926
H -0.3864797 -1.1998696 2.0833805
H 1.212318 -0.4181002 2.129707
H 0.9669825 -1.9111162 1.1937429
H 0.15082711 2.2909715 -1.7006006
H -1.5828075 0.17708692 -2.2948287
