10

C -1.2200639 -0.38109082 -0.34866202
C -0.0910832 -0.8119679 -1.0448676
N 1.1371017 -0.43229288 -0.70098627
C 1.2197231 0.38128954 0.34865373
C 0.091188334 0.81172967 1.0447978
N -1.1368054 0.43354765 0.6996452
H -2.2153614 -0.7027842 -0.6465181
H -0.1820227 -1.4786917 -1.8995082
H 2.2147822 0.7033325 0.6472508
H 0.18254155 1.476928 1.9001949
