12

O -0.5471453 0.618072 -1.6971203
C 0.18729977 1.1734457 -0.632482
C 0.3624102 0.16310391 0.4884685
C -0.7112851 -0.78994566 0.83639735
N 0.42467934 -1.2200993 0.016930522
H -0.23886363 -0.29859787 -1.7678978
H -0.36209193 2.0492823 -0.27186796
H 1.1809503 1.5113454 -0.96526206
H 1.0445083 0.4589939 1.2823582
H -1.6553952 -0.7422101 0.304158
H -0.7700735 -1.1458056 1.862344
H 1.0850068 -1.7775849 0.5439736
