12

O -1.0976751 0.46815193 -1.8517578
C 0.7864556 1.0250884 -0.1282152
C 0.032580163 -1.0818678 1.1919657
C -0.12507594 -0.16333397 0.018797003
N -1.0521094 -0.45556015 -0.8058804
H 1.5052679 1.0690103 0.69478554
H 1.0443153 -1.5049806 1.2133853
H -0.6947674 -1.8933874 1.1445621
H 0.20348582 1.9518938 -0.1427871
H 1.3306696 0.973102 -1.0765798
H -0.10476658 -0.53014356 2.12966
H -1.8283801 0.14202702 -2.3879352
