12

O -0.41645144 0.45303624 -2.11527543
C 0.64732501 1.11108098 0.17951924
C -0.10234425 -0.17691365 -0.03004196
C -0.25974173 -1.14011934 1.10677178
N -0.63179283 -0.52012154 -1.13763960
H -0.86239819 0.08076186 -2.88359617
H -0.00226645 1.96743590 -0.02957771
H 1.49512742 1.17523067 -0.50996084
H 1.01519602 1.18513729 1.20671789
H -0.81629500 -2.02244803 0.78803963
H -0.78866069 -0.66308657 1.94056962
H 0.72230218 -1.44999404 1.48447359
