11

O 1.44360862 -1.96629200 -0.30939319
C -1.40712854 -0.00590037 -0.63842745
C 0.75768329 -1.00609684 -0.13162388
N -0.35290080 0.73674714 0.22614468
C 0.07919773 0.01352838 -1.00303763
C 0.29205098 -0.25349521 1.13451168
H -0.43116119 -0.74976531 1.78138990
H -1.84134568 0.80231547 -1.25295637
H 0.55512647 0.53049618 -1.83372839
H 1.13542028 0.16325630 1.69533963
H -0.23055148 1.73520655 0.33178123
