12

N -1.14324502 0.08512897 -0.71568427
C 1.26137435 -0.88281351 0.67551595
N 0.83777381 -2.03849258 0.45801553
C -0.08948353 -1.03612759 1.16501256
C -1.25192362 -0.55798223 0.37063405
C -0.17119621 0.48704954 -1.50141617
N 0.23489894 1.74595687 -1.29760641
H 0.90687609 2.14153918 -1.93261081
H 2.13868516 -0.28371073 0.48156256
H -0.27632955 -1.23418472 2.21912697
H -2.25463130 -0.81048404 0.70986108
H -0.19279888 2.38412086 -0.63241069
