9

O 1.2815028 -1.6284492 0.11434277
C 0.2224266 0.47775438 0.44722754
C 0.22561517 -0.8341099 -0.14354765
O -1.685375 1.104502 -0.7333257
C -0.681563 1.4225382 -0.10791163
N -0.83368844 -1.1424037 -0.7506396
H 0.78265536 0.6438969 1.3625034
H 1.0719061 -2.5251207 -0.18568592
H -0.38347977 2.481392 -0.0029631285
