9

O 1.49847274 -1.15163029 -0.96661487
C 0.45144543 -0.38353934 -0.79058785
C -0.69561089 -0.10959619 0.02743261
O 0.39140984 1.43825153 1.47195827
C -0.52671443 0.67909708 1.28608452
N -0.18608399 0.58041937 -1.26745170
H 1.98015579 -0.85589586 -1.75513813
H -1.60105831 -0.70896263 -0.05773694
H -1.31201604 0.51185635 2.05205404
