9

O -0.0028039431 -0.9661083 -1.8901439
C 0.7774247 0.76472706 1.097004
C -0.4364942 -0.41116366 -0.78508073
O 1.1171751 1.7167026 0.43963885
C -0.21923974 -0.24396107 0.623743
N -1.3392636 0.30581108 -0.30133086
H -0.50274193 -1.0222205 1.3310391
H -0.58851105 -0.71603286 -2.622029
H 1.1944547 0.57224584 2.1071596
