10

N -0.6720464 0.204214 0.752527
C 0.19206436 -0.7339277 0.08279007
O 0.19002186 1.36019 -0.8338729
C 0.71870995 0.06917016 -0.9413996
C -0.6205583 1.3853986 0.1646017
N 0.25333595 -1.9373188 0.5462989
H -1.2275655 -0.060584687 1.5512917
H -1.1537497 2.287349 0.4243935
H 1.434169 -0.077858195 -1.7320614
H 0.8856188 -2.4966326 -0.014568895
