10

N 0.6947973 0.4646127 -0.7909586
C 0.38051927 1.2922482 0.18938594
O -0.21532926 0.78252876 1.205072
C -0.4326346 -0.68696296 0.92306674
C -0.13191095 -0.7474463 -0.51156586
N -0.79445577 -1.5220542 -1.2225502
H 0.55900365 2.3632483 0.17260392
H -1.3292696 -1.5243151 0.13667065
H 0.263909 -1.1965063 1.5963717
H 1.0053709 0.77464676 -1.6980963
