10

N 0.40233770 -1.88147644 -0.64342556
C -0.49846963 0.99968990 1.04099171
O -0.10078938 1.60339737 -0.02297018
C 0.19752774 -0.63582456 -0.37296473
C 0.33389991 0.64095421 -0.94087743
N -0.35388751 -0.30688475 0.91664166
H -0.88876721 1.55403198 1.88103459
H -0.58973544 -1.01792057 1.59158512
H 0.78237984 -1.97882864 -1.57791832
H 0.71550418 1.02286155 -1.87209708
