9

O 1.1351295 -0.52685666 1.634134
C 0.42091915 -0.06590799 0.5934008
N -0.7995002 0.19772904 -1.131369
N -0.41099766 1.4069855 -0.7483721
N 0.33599263 1.252696 0.3060424
C -0.30861565 -0.78273404 -0.3235839
H -1.3928349 0.10712261 -1.9410244
H 1.5242882 0.24368712 2.0730176
H -0.50438094 -1.8327215 -0.46224552
