9

O 0.81784487 -1.67308 -0.7646973
C 0.27002442 -0.5618529 -0.24675089
N -0.30875903 -0.5127082 0.94251597
N -0.69217247 0.75830877 1.0232345
N -0.410471 1.5243233 -0.005715301
C 0.21267436 0.7060984 -0.848835
H 0.70184255 -2.3899894 -0.12788996
H -1.1711133 1.1115468 1.8355222
H 0.5801295 1.0373533 -1.8073839
