11

C 0.9392351 1.0910112 -0.7670347
N 0.08906747 0.1380637 -0.08586129
C 0.37652573 -1.0710548 0.42493057
N -0.7008088 -1.613847 0.95738864
C -1.6405636 -0.6631262 0.73510236
N -1.2157129 0.41454634 0.107842766
H 0.5767261 1.2434446 -1.7860746
H 0.9255527 2.0420966 -0.22926548
H 1.9579097 0.6989897 -0.79480344
H 1.3640294 -1.5118004 0.39148054
H -2.6719608 -0.7683237 1.0462946
