11

C 0.1532093 -0.19073234 -0.9560047
N -0.89455515 0.5747733 -1.4416685
C 0.8533982 -0.9752502 1.0388101
N -0.5519033 1.0897473 0.7714745
C -1.2082838 1.3260916 -0.39892387
N 0.23768398 0.10261144 0.4116561
H 0.2016531 -1.8358421 1.1604143
H -1.9728497 2.092601 -0.4289012
H 1.0903887 -0.05658493 -1.5039213
H 1.4746704 -0.7476112 1.9044753
H 0.61658835 -1.3798039 -0.55741084
