11

C 1.2578115 0.8147522 -0.9364211
N 1.538534 -0.44230935 -0.8168967
C -1.5357982 0.21643414 0.8648522
N 0.118962966 1.3143916 -0.3746062
C 0.44978955 -0.9658328 -0.045834
N -0.4271 0.22863227 0.20227686
H -1.8767377 -0.72042835 1.2880262
H 0.77799624 -1.3728566 0.9157211
H 1.8989537 1.5047667 -1.4771258
H -2.0806675 1.1458551 0.9718706
H -0.121744715 -1.7234051 -0.59186345
