10

N 0.6030716 -0.17669158 3.3034241
C 0.35096627 -0.031129863 2.1846414
C 0.041607432 0.13454589 0.798651
N -0.65514237 1.1216966 0.28623495
C -0.70094776 0.8653468 -1.0532173
C -0.023005031 -0.2898936 -1.3503484
N 0.45163384 -0.753251 -0.1554579
H -1.2221143 1.5250182 -1.7322787
H 0.1570855 -0.8081254 -2.2790582
H 0.9968448 -1.5875163 -0.0025913815
