12

N 2.1672745 0.39212817 -0.69396687
C 0.88525426 0.16534464 -0.28192496
N 0.7052478 -0.8426912 0.58717114
C -0.54060686 -1.0232873 1.0069523
C -1.6079595 -0.23900194 0.5845982
C -1.2927972 0.7644935 -0.323637
N -0.059754476 0.9823402 -0.7710269
H 2.290231 0.9659548 -1.5124655
H 2.8328528 -0.3454839 -0.5283226
H -0.6940989 -1.8399898 1.711821
H -2.618845 -0.4009414 0.937515
H -2.066798 1.4211342 -0.7167136
