10

O 0.6994541 1.319279 1.6259564
C 0.11214372 -0.8070244 -1.0539535
N 0.9576329 -0.08581896 -0.21407841
C 0.1557966 0.53782654 0.67844325
C -1.1425985 -0.5557782 -0.59234315
N -1.1104592 0.29375458 0.50183016
H -0.04331625 1.6594117 2.144763
H -2.0805326 -0.93148047 -0.9756957
H 0.4892968 -1.4043941 -1.8680218
H 1.962582 -0.025775785 -0.24690017
