10

O 2.3637176 -0.39606756 0.27457568
C 1.1729714 -0.19613771 0.13658755
N 0.32981604 0.5711516 0.9248344
C -0.9735803 0.55135304 0.4347498
C -0.97583914 -0.22366844 -0.66353613
N 0.32697555 -0.68016255 -0.8485776
H 0.6606689 1.0619448 1.7368985
H -1.7780976 1.088222 0.91355115
H -1.7813731 -0.4928433 -1.326932
H 0.65474087 -1.2837917 -1.5821512
