10

O -0.9848909 1.8482798 0.92868954
C -0.4587052 0.7526798 0.5178423
N -0.21757475 -0.4923603 0.97386163
C 0.42513216 -1.1879537 -0.0700473
C 0.5407719 -0.31892455 -1.1091293
N -0.016955094 0.89003325 -0.72543746
H 0.98025024 -0.4764903 -2.0824409
H -0.4614638 -0.8440705 1.8839239
H 0.73089695 -2.2169938 0.044787318
H -0.53746176 2.0458 -0.36204985
