10

N -0.31983745 -1.00272 -1.5076205
C -0.077092454 -0.44285208 -0.266562
N -0.038158134 -1.175188 0.8171717
O 0.31239098 -0.30466917 1.8399706
C 0.45249003 0.922858 1.3354414
C 0.22320811 0.9303955 0.0030488018
H -0.87980944 -0.42607853 -2.120578
H -0.67208165 -1.9477597 -1.4531705
H 0.7244818 1.692635 2.0440245
H 0.2744082 1.7533789 -0.69172627
