10

N 0.9757881 1.4186735 0.55696154
C 0.2591339 0.31835943 0.09902861
N 0.24552208 -0.024210958 -1.1826153
N -0.4722513 -1.1408888 -1.1864003
N -0.937222 -1.5491462 -0.028993575
C -0.48474663 -0.6356776 0.825528
H 0.4977127 1.947785 1.2726663
H 1.2574501 2.02107 -0.20425214
H -0.6454538 -1.6538315 -2.034632
H -0.6959331 -0.7021328 1.8827087
