12

C -0.69480537 1.57698127 1.47349123
N -0.41974694 -0.49330335 -0.46886225
C 0.59746569 0.05018168 0.04967653
N 0.49612148 1.06399852 0.99681096
C -0.18568494 -1.53962711 -1.44360613
O -0.73204229 2.46303061 2.29399811
H -0.66303468 -1.26065657 -2.38766702
H 1.63420008 -0.22021753 -0.19372487
H -1.57879989 1.09683123 1.03176287
H 0.87854421 -1.74928238 -1.63598587
H 1.33254929 1.47359284 1.38090761
H -0.66476671 -2.46152919 -1.09680131
