12

C -0.7669983 1.1731018 0.0045880177
N -0.18276522 -0.15267083 -0.14619023
C 1.065725 -0.41009632 0.403718
N 1.7043846 0.49079716 1.031908
C -0.85569835 -1.1468745 -0.82037634
O -1.9409107 -1.0221643 -1.3324076
H -1.7428223 1.1527373 -0.48116204
H -0.118587404 1.919477 -0.46098492
H -0.86635256 1.4139929 1.0654755
H 1.3975112 -1.441185 0.2252235
H 2.5915766 0.11839269 1.3540494
H -0.28506264 -2.0955079 -0.84384143
