12

C 0.042779036 1.2272931 1.9059702
N -0.44704428 -0.6318467 -0.20072031
C 0.41978022 0.28001678 -0.32760707
N 0.67934966 1.2032785 0.6800488
C -0.6260355 -1.5342926 -1.3202102
O 0.2992534 2.0539343 2.7489333
H 0.024025703 -1.3195137 -2.183251
H -1.6686378 -1.4920204 -1.6490442
H -0.4319777 -2.5587904 -0.98488617
H 1.0355815 0.42660347 -1.225649
H 1.3750478 1.9174343 0.53549844
H -0.70212215 0.42790347 2.020917
