10

O -0.84059044 1.32138001 -0.78858322
C 0.20843156 0.51823461 -0.35392111
C 0.18998525 0.23622593 1.09483419
O -0.75568366 -1.14221463 -1.75984392
C 0.16687645 -0.04386493 2.26165549
C 0.17174083 -0.83615075 -1.05401758
H 0.13803553 -0.27523671 3.30440369
H 1.16274918 1.00567034 -0.60472209
H -1.46326357 0.72873554 -1.24039118
H 1.02171877 -1.51277960 -0.85941444
