10

O -1.4924668 0.0398505 -0.9194867
C 0.895088 -0.16608632 -1.0053998
C -0.31113464 0.47989288 -0.33191723
O 0.75220823 -1.0381159 -1.8246262
C -0.07015415 -0.122572914 2.2638268
C -0.20059979 0.16503344 1.1059307
H -1.2571652 -0.7451767 -1.4404907
H 0.026013007 -0.37694556 3.2971394
H 1.8878942 0.19419585 -0.6849437
H -0.22968309 1.5699245 -0.46003264
