10

O -2.2410522 0.1703459 -0.66053647
C 1.2616187 0.05664081 0.3374775
C 2.4555824 -0.090014756 0.36061713
O -0.8019163 0.8828322 1.1785276
C -0.14768785 0.25645742 0.25663945
C -1.0383009 -0.2293851 -0.79541063
H -1.7317325 0.8914953 0.7272121
H 3.5150218 -0.22040996 0.38893273
H -0.6941507 -1.183663 -0.046897415
H -0.5773826 -0.53429884 -1.7465619
