9

O 1.28565625 0.01121129 1.67208437
C 0.90777827 -0.02463036 0.41223808
N -1.72801423 -0.53804276 -0.25530529
N 1.02504562 -0.67401430 -0.65933444
N -1.26115191 0.48728031 -0.77581198
C 0.17555134 0.59198740 -0.64286964
H -2.74369475 -0.50565283 -0.43132890
H 1.78383539 -0.79634113 1.87519824
H 0.55499416 1.44820237 -1.19487051
