12

O -0.48536792 -0.80491316 -2.069293
C -0.46231887 0.69175225 -1.542385
C -0.048201278 0.46600056 -0.18580645
N 0.4237607 1.4313865 0.6669742
N -0.15628968 -0.74745035 0.3688639
C 0.60684776 0.76806206 1.7876197
N 0.28399572 -0.52492523 1.6405631
H 0.29048434 1.1609617 -2.1730528
H 0.95762354 1.1720628 2.726626
H 0.25381166 -1.2591037 2.3265254
H -1.4092684 -0.9881031 -2.298292
H -0.25507763 -1.3657304 -1.2483424
