12

O -0.23957505 -0.41854316 -2.22100571
C 0.21767257 0.90933855 -1.48220570
C 0.17696191 0.45642175 -0.11986523
N 0.75750803 1.09933983 0.94389015
N -0.50988134 -0.64270830 0.21474634
C 0.40213293 0.35291839 1.96659739
N -0.33803570 -0.69119922 1.56704262
H -1.08006770 -0.20229451 -2.65274616
H 0.64221221 0.52598047 3.00602248
H 1.21948657 1.07422599 -1.87437007
H -0.44205911 -1.07234448 -1.46400272
H -0.80635513 -1.39113471 2.11589652
