12

N -0.96657926 -1.6967182 0.50398743
C -0.5663118 0.6946833 0.7736402
C 0.73587424 -0.50951415 -0.7736785
N 1.4267316 0.5897721 -1.0603576
C -0.29772598 -0.5310329 0.16241536
N 0.11562882 1.8039445 0.501974
C 1.0838399 1.6945186 -0.40338945
H -1.8792118 -1.5745068 0.9158165
H -0.9525603 -2.4273055 -0.19213796
H 1.6481045 2.595743 -0.63044834
H 1.0159018 -1.4163271 -1.3093976
H -1.3636916 0.7767436 1.5115756
