9

O 2.19059796 -0.08087623 -0.37198175
C -0.12075591 0.86881888 -0.59026726
N -2.13494628 -0.01933475 0.43208382
N 0.14438383 -0.85145196 0.57606772
N -0.93347559 0.05266287 0.14855421
C 0.89037348 -0.02738978 -0.15278266
H -2.24653085 -0.83940887 1.03347510
H 2.54455057 -0.84768452 0.10026912
H -0.33419719 1.74466438 -1.17541814
