9

O 2.2088897 0.18109313 0.17788346
C -0.12880364 1.0435506 -0.110704556
N -0.94198525 -0.056438398 -0.07547744
N 0.15195283 -1.0207173 0.11277242
N -2.1520116 -0.29622775 -0.16174343
C 0.8973174 0.07914549 0.07358802
H 2.5719855 -0.70822334 0.29439923
H -2.257826 -1.3100545 -0.074549496
H -0.3495187 2.0878723 -0.23616818
