11

C 0.36372750 -0.56789720 1.15603772
C -0.24680571 0.07156378 -0.06968060
C 0.53653144 0.94052861 -0.96117194
O -0.40371105 1.47942663 -0.04943115
C -1.38272719 -0.64589155 -0.64900974
N -2.26668793 -1.24307306 -1.09180644
H 1.58269249 1.11445715 -0.71433999
H 1.20341912 0.03878905 1.50668923
H 0.26653018 1.02632859 -2.01210056
H -0.37580911 -0.63973424 1.95919513
H 0.72284003 -1.57449775 0.92561757
