10

N -0.26695897 0.82976472 -0.65192004
C -0.93102883 -0.95139603 0.75717495
C -0.73296050 1.60853376 -1.47422324
O -2.09151195 -0.62513681 0.84262012
C 0.10228721 -0.18640988 0.03512358
N 1.42831355 -0.64930121 0.05401815
H -0.53671961 -1.87879961 1.22107499
H 1.84819105 -0.63353947 0.97528425
H -0.84219344 2.64976293 -1.15421989
H 2.02258138 -0.16347851 -0.60493285
