11

O -0.4266766 2.4374928 -1.2448224
C -0.23828125 1.3808174 -0.7152741
N -0.44138604 0.935772 0.586322
C 0.15281533 -1.4365257 1.1211011
C 0.026879393 -0.37203974 0.343222
C 0.29342446 -0.010010736 -1.1158297
H -0.7983605 1.3993572 1.4098939
H 0.5404598 -2.3669891 0.7210009
H -0.123269536 -1.4120969 2.169848
H 1.3411739 -0.023731112 -1.425173
H -0.326779 -0.5320465 -1.8502886
