11

O 1.7538215 -0.915688 -1.8341208
C 0.7333616 -0.2664572 -1.9175779
N -0.035942547 0.08249056 -0.85534334
C 0.34004393 -0.3235808 0.49200976
C -0.5793752 0.2518379 1.4709265
C -1.3435202 0.725196 2.267302
H 0.32641086 0.10665676 -2.8755243
H -0.8799157 0.61755913 -0.9956523
H 0.33186197 -1.417983 0.5660038
H 1.3669236 0.00064878725 0.69488376
H -2.01367 1.1393199 2.9870925
