11

N -0.51380662 -1.55447824 -3.19943068
C 0.19190634 0.35848051 1.32062172
C 0.30205512 -0.32641878 -0.01254594
C -0.71817312 -0.43755127 -0.86570597
C -0.59318517 -1.06010455 -2.15559475
O 1.15085477 1.38456074 1.46111983
H 1.01917350 2.02315439 0.75181749
H -0.83317002 0.72617772 1.47920494
H -1.70383842 -0.04582132 -0.62527749
H 1.28440409 -0.71426284 -0.27731453
H 0.41377945 -0.35373632 2.12310547
