11

N 0.4617519 0.3398072 -2.9268215
C 0.35843286 0.6316048 -1.8140285
C 0.20673853 0.9683418 -0.3929744
C -0.5983333 -0.08703518 0.34451222
C 0.06107587 -1.183579 1.0536182
O -0.47133467 -0.06381181 1.7524294
H -0.283466 1.9441568 -0.30960923
H 1.1970699 1.0590136 0.06685937
H -1.613774 -0.23498248 -0.02099617
H -0.46615627 -2.1243804 1.2044666
H 1.1479951 -1.2491353 1.0425441
