10

O 2.3626974 -0.39708912 0.2757926
C 1.1724875 -0.1962803 0.13587639
N 0.33039534 0.5717229 0.9241203
C -0.9743976 0.55118495 0.43542796
C -0.97661924 -0.22417846 -0.66251975
N 0.32723135 -0.6801531 -0.8486044
H 0.65980643 1.0625895 1.7367812
H -1.7754425 1.0911144 0.91346174
H -1.7802262 -0.49318528 -1.3293943
H 0.6540677 -1.2857255 -1.5809414
