10

O 0.89339049 -0.60962051 1.99665468
C -0.29839223 -0.53731029 -1.20517510
N 0.83266212 -0.00367315 -1.40181103
C -0.88305166 0.46502673 0.79228977
C 0.51628604 0.34760680 1.37174792
N -1.25038148 0.04334892 -0.34092092
H 1.13517930 1.24849848 1.21459663
H -1.62027709 0.97018079 1.42034947
H -0.67571349 -1.42566024 -1.71872249
H 1.35029816 -0.49839752 -2.12900859
