10

O -0.9658856 -2.1273484 -0.50752544
C 0.1791139 0.83202374 0.75345623
N 0.90176576 -0.58867985 -0.8523883
C 1.2180275 0.4764665 -0.13501741
C -0.45543906 -1.0065918 -0.50302607
N -0.8177766 0.007221844 0.5494594
H -0.6186908 -0.2760875 -1.4538355
H 2.1250932 1.0398288 -0.31222844
H 0.12639894 1.6877466 1.4149463
H -1.6926073 -0.04457988 1.0461591
