11

O 1.53098742 -0.33744847 -1.89173449
C 0.82863230 -0.16822685 -0.93595595
N -0.42958098 -1.04914900 0.89379352
C 0.83423193 0.85643568 0.22855574
C -0.58017808 0.35711295 0.53346289
C -0.53798912 -0.67813598 -0.54099213
H 0.89951402 1.87650467 -0.15800770
H 1.55944207 0.70324691 1.03095478
H -1.34264397 -1.41648382 1.16604332
H -1.43955556 0.94037642 0.84068954
H -1.32286042 -1.08423252 -1.16680956
