11

O -2.2538216 -1.178559 -0.2948215
C -1.1404313 -0.6843039 -0.23946266
N -0.6541339 -0.072928205 1.0122883
C 0.9985706 0.20255205 -0.47228
C 0.5735908 0.42897153 0.91378766
C -0.06504054 -0.48501182 -1.145688
H 1.1562853 0.8379516 1.7279651
H 0.72370017 1.3754846 -0.34377444
H 2.0542243 0.17314297 -0.7298236
H -0.101303495 -0.70665663 -2.2018478
H -1.29164 0.10935673 1.773657
