10

N 1.17848963 1.60648432 -0.31198835
C 0.87676194 0.38005971 -0.82259591
N 0.44066298 1.84184740 0.71698760
N -0.35997710 0.76690435 0.87987302
N -0.86363290 -1.35115249 -0.15725478
C -0.12438729 -0.17673952 -0.06069838
H -1.05836758 0.77548175 1.60533357
H 1.38330227 -0.02280383 -1.68577104
H -0.50990606 -1.96410217 -0.87744936
H -0.96294595 -1.85597955 0.71356381
