10

N -0.2249789 -1.04463 0.67130876
C -0.2899828 0.123252265 0.015116674
N 1.7383115 -0.704302 -0.36671647
N -1.3839746 0.9593068 0.11438552
N 1.1013279 -1.5569159 0.39604664
C 0.911161 0.29557663 -0.67713034
H 0.70576143 -1.1919098 1.4945226
H 1.2032446 1.0828494 -1.3588152
H -1.5337632 1.5542362 -0.68759716
H -2.227107 0.48253652 0.398879
