10

N -0.004122536 -1.5597508 0.4041836
C 0.9940781 0.60256964 -0.48840505
N -0.8172474 1.7925401 -0.4685761
N -1.0854447 0.5599507 0.012934395
N 0.4336934 1.8109521 -0.77416337
C 0.018133976 -0.22279817 0.020627432
H 0.91874236 -1.9694176 0.40611053
H -2.0318596 0.3203231 0.2599026
H -0.46577692 -1.7342547 1.2870551
H 2.0398033 0.39988548 -0.6596691
