11

N -1.1691186 0.97658795 -0.38144216
C 0.36080903 -0.72293174 0.4427991
O 0.5183192 -1.0035604 -0.9678698
C -0.7817619 0.2397327 0.69476736
C 1.7018044 -0.19752963 0.07574231
O -1.2415951 0.35889104 1.8139333
H 1.602457 0.8597018 -0.21385743
H 0.28385234 -1.6049592 1.0744857
H -0.8895347 0.7099571 -1.3117546
H -1.9569045 1.5954872 -0.26183528
H 1.5716728 -1.2113767 -0.9649683
