12

O 0.40419707 1.1748286 -2.1693764
C 0.7532361 1.2902987 -0.8141114
C 0.20973554 0.16991614 0.020036481
N -0.74951744 -0.61393 -0.42898813
N -0.9808457 -1.4201938 0.6265555
C -0.16300295 -1.0939854 1.6441479
N 0.6065733 -0.08630903 1.2982564
H -0.48611215 0.80440605 -2.2105753
H 0.40236416 2.2399962 -0.3813374
H 1.8459598 1.2905738 -0.75055206
H -1.6755687 -2.1465888 0.57134324
H -0.16701883 -1.6090124 2.5946012
