12

O 1.98299580 1.43348289 0.43889086
C -1.43266950 -1.05391362 -0.92409628
C -0.04469834 0.16334666 0.14223124
N -1.28113803 0.13828898 -0.13149536
N -0.10116350 -1.65825951 -1.05293298
C 0.71668135 1.14313671 0.98743756
N 0.70511977 -0.94350231 -0.43001414
H -1.82863089 -0.83567302 -1.92063219
H 0.15079071 2.07322193 1.05567833
H 2.42929605 0.59355499 0.27394788
H -2.10007103 -1.77644926 -0.44138133
H 0.80348781 0.72276562 2.00236644
