12

O 0.76643723 -1.307723 -1.9886119
C 0.056074496 -0.21058379 0.037111923
C 0.9405111 -1.2424351 -0.60175437
N -0.17887688 -0.1060471 1.3397692
N -0.51751816 0.7476817 -0.72083706
C -0.98347044 0.9729048 1.3903935
N -1.2469815 1.4939159 0.09121319
H 1.9819721 -1.0139917 -0.32905528
H -1.5928599 1.2539371 2.2441192
H 0.7003671 -2.219568 -0.17119455
H -0.45488203 2.052831 1.0076028
H 0.52922684 -0.42092186 -2.298757
