9

N -0.4760564 -0.76141036 1.832054
C -0.1646612 0.9331901 -1.198852
C -0.2614267 -0.63946277 0.6406297
C 0.08431313 -0.54059535 -0.6704613
N 1.1361511 0.4630531 -0.95162445
H -1.3831245 -0.4897469 2.2011652
H -0.03267487 -1.3962132 -1.3287429
H -0.5146225 1.6411343 -0.4214933
H 1.612102 0.790051 -0.10267519
