9

N 1.1095144 -0.9826068 -2.1844678
C 0.89512694 -0.51255673 -1.1520607
C 0.6155183 0.053088997 0.1556242
C -0.7099146 0.6927458 0.37852934
N -0.39251116 -0.5777083 1.0050769
H 1.4898527 0.42673004 0.68042326
H -0.7666065 1.5430664 1.0524809
H -1.4031334 0.71060145 -0.45705545
H -0.8378466 -1.3533607 0.5214493
