11

N -0.6937316 -2.0255206 -0.08362755
C 0.09253494 1.3272107 -0.6255846
O 1.0094037 1.0632174 0.4801479
C -0.35314766 -0.7885299 0.172625
C 0.9414593 -0.21795003 0.6391429
O -0.91121274 0.3811428 -0.50668
H -0.57772267 -0.5827386 1.327694
H -0.2935198 2.3373778 -0.48572168
H 0.66621685 1.2241225 -1.5552723
H 1.5946124 -0.6767094 1.3717195
H -1.4748926 -2.0416229 -0.73444295
