11

N -0.6438583 -1.4234504 1.491223
C 0.43845692 0.2470552 -1.3613206
O 0.6979715 1.2230319 -0.3964178
C -0.058236096 0.85819 0.74387974
C -0.22639453 -0.6392899 0.6000673
O 0.14888956 -0.9651613 -0.6681006
H 1.3258619 0.10033693 -1.9780959
H 0.49062914 1.1220406 1.6496454
H -0.42998135 0.50883216 -1.9838495
H -0.7011179 -2.3795824 1.1479055
H -1.0422208 1.347997 0.7550636
