11

N 2.2613547 -0.6440173 0.7230044
C 1.1088225 -0.31873375 0.34141096
O 0.5088455 -0.90026844 -0.72539765
C -0.8556689 -0.4972413 -0.7574612
C -0.83597875 0.8040234 0.038387354
O 0.28750527 0.6206341 0.8969654
H 2.5480628 -0.0629516 1.5038551
H -1.4722322 -1.2641705 -0.27571365
H -1.1612494 -0.37603876 -1.7981291
H -0.66475224 1.6777813 -0.5992154
H -1.7247089 0.96098274 0.6522936
