10

C 0.73579246 -0.550148 1.2538218
C -1.3921741 0.08005445 0.63280505
N -1.1128564 0.40169597 -0.5944126
C 1.1652288 0.15661398 0.069944724
N -0.5792509 -0.6586883 1.4619989
C 0.18974116 0.2625985 -0.9862774
H 0.4382367 0.41714674 -2.0345972
H 2.210117 0.4209907 -0.060799327
H -2.381867 0.33181694 1.0079049
H 0.7270318 -0.862081 -0.75038916
