10

C -1.31001504 0.72978331 -0.39718761
C -1.41074551 -0.76517714 -0.59693244
N -0.26970626 -1.24616777 -0.82974180
C 0.85123349 -0.86996857 -0.33044205
N -0.36798350 1.13205512 0.36660834
C 0.69099955 0.19032092 0.73556206
H -2.08490230 1.43302800 -0.70001815
H 1.79776427 -1.14092037 -0.79141510
H 1.62944395 0.75186466 0.81197448
H 0.47391157 -0.21481828 1.73159244
