10

C 0.8300366 -0.9423776 0.11661634
C 0.32945204 0.2169706 0.94822943
N -0.0035693122 -1.298877 -0.79186666
C -1.0883607 -0.73590434 -1.0981544
N -0.38611352 1.1792653 0.10775928
C -0.9489201 0.7630096 -0.9611702
H -0.32319507 -0.0839821 1.7769759
H 1.854457 -1.306202 0.1217333
H -1.4573793 1.4782575 -1.6066153
H 1.1935924 0.7298401 1.3864924
