9

N -0.79797184 1.2297913 -0.041912813
C 0.55869776 -0.7196922 0.21975072
O 1.4738168 1.4372363 0.0076423986
C 1.4644655 -1.713921 0.061119955
C 0.46796912 0.7612824 0.049914237
C -0.07205653 -2.2262013 -0.6244367
N -0.57141495 -1.6274838 0.3764969
H -0.9247625 2.229051 -0.12457527
H -1.5987432 0.6299369 0.07600053
