10

N 0.06000215 -1.9789692 -2.0836322
C -0.59078753 0.97398114 0.29706532
C 0.09999256 -1.0584527 -1.2770225
C 0.6915845 0.40300724 0.8698511
C 0.25865355 0.06098019 -0.5030314
H -0.60563064 2.0251157 0.01600664
H 1.5498897 1.0645821 0.97753394
H -1.533244 0.61118436 0.70366865
H -0.5321056 -1.7636478 -0.6622348
H 0.6016456 -0.33778086 1.6617948
