10

N 0.90142703 1.923855 -1.847877
C 0.35055164 1.076841 -1.285248
C -0.32832187 0.022331733 -0.57315886
C -0.48086587 0.1216066 0.9287054
C 0.46562788 -0.8771043 0.34929296
H -1.1466889 -0.43163264 -1.1242326
H -1.4191953 -0.22624265 1.3473887
H -0.06492369 1.0001315 1.4111125
H 0.19267872 -1.9268674 0.36075026
H 1.5297104 -0.68291897 0.433267
