10

N -0.31859198 -1.0020149 -1.509984
C -0.075155884 -0.4411873 -0.26978153
N -0.037386652 -1.1743261 0.81525123
O 0.31055924 -0.30560634 1.8402317
C 0.45138353 0.9218838 1.3358467
C 0.22402193 0.93166107 0.0024668996
H -0.8831256 -0.42977965 -2.1201496
H -0.669196 -1.9489709 -1.4499761
H 0.72230893 1.6919585 2.0465117
H 0.27518255 1.7563815 -0.69041735
