10

N -0.16712284 -0.07802379 1.7572409
C 0.040191494 0.05120163 0.43935016
N 1.258484 -0.48375064 -0.040639106
O 1.4838848 0.37710032 -1.3323029
C -0.7394351 0.44027478 -0.62191826
C 0.26148656 -0.04062413 -1.5449427
H 0.09549808 -0.70172805 -2.4022179
H 0.58689684 -0.42866087 2.3284664
H -1.0767224 0.056871276 2.1675844
H -1.7431617 0.80733943 -0.7506205
