10

C 0.11230003 0.6057205 0.16031793
O -0.28591776 -1.7096375 -0.33966866
C 0.659889 -0.72141117 0.041314196
O 1.0791392 1.4527884 0.17626148
N -1.1684356 0.9546129 0.15225571
H 1.1564736 -1.012129 0.97513443
H -1.84592 0.2109614 0.08169199
H -1.4545397 1.9143302 0.05026826
H 1.6678948 0.4551593 -0.18054472
H 0.079115994 -2.1503954 -1.1170305
