10

N 0.8232102 -1.5078605 -0.45431057
C -0.20274584 -0.6481598 -0.3614333
O -1.3339056 -0.8155283 -0.7804171
C 0.20308785 0.64736277 0.36532804
O 1.333574 0.81376064 0.7854416
N -0.82326 1.507237 0.45343146
H 1.7109869 -1.2329085 -0.061694898
H 0.70398086 -2.396103 -0.90965396
H -0.7048616 2.3981385 0.90438694
H -1.7100667 1.2340612 0.05892185
