13

C 0.26602337 -1.3582467 -0.3445807
C 0.11500099 1.0974815 0.05487612
O 0.5044142 2.385827 -0.1390035
C 0.8206069 0.032118585 -0.36806616
O -0.35508245 -1.631818 0.9188177
N -1.0488437 1.0770614 0.77886236
H -0.47863293 -1.5028619 -1.1461188
H -0.83248734 -2.466015 0.82801324
H 1.1993785 2.3905098 -0.8056752
H -1.340478 0.1388149 1.010599
H 1.8234712 0.1786186 -0.75440603
H 1.0775735 -2.075492 -0.51724815
H -1.7509446 1.7340013 0.48393002
