13

C 0.19887535 -1.5203812 -0.5971719
C -0.20672214 -0.055442303 -0.5832151
O -1.5732152 0.13308656 -0.22871472
C 0.73739743 0.76868653 0.3001973
O 1.9444644 0.6208435 0.2596389
N 0.10047927 1.6547503 1.1072464
H 1.2477115 -1.6156952 -0.88562113
H -0.42818913 -2.0770102 -1.3005077
H 0.08485676 -1.9642303 0.4006437
H -0.115870714 0.3609781 -1.591857
H -1.7598021 -0.4401611 0.5259328
H -0.88534343 1.8129346 0.9727184
H 0.6553581 2.321641 1.6207098
