11

O 1.6004611 1.3221768 1.3711857
C -0.61324036 0.99898106 0.4834405
C 0.7730109 0.5846248 0.9027105
C 0.5452698 -1.2840091 -0.3720875
N 1.0870683 -0.79621905 0.66884834
C -1.0548553 0.5135516 -0.8774055
N -0.38612533 -0.59732264 -1.1926636
H -0.7309337 2.081216 0.58507985
H -0.631531 -1.0614913 -2.0598555
H 0.7607156 -2.3068223 -0.6759405
H -1.3498399 0.54531395 1.1666876
