10

N -1.2258725 -0.7106392 -0.29440764
C -0.6273627 -0.0056336215 0.6947866
O -1.1221008 0.2041574 1.7820278
C 0.76380146 0.5594025 0.3812189
C 1.3064991 0.19329566 -0.9255772
N 1.6843497 -0.12374549 -1.9711006
H -2.1388717 -1.0987884 -0.11165707
H -0.78615546 -0.88955903 -1.182873
H 0.70430183 1.6492645 0.45779163
H 1.4414115 0.22224565 1.1697906
