10

N -1.98002416 -0.89862107 -0.01908983
C -1.13511203 0.12413947 -0.01362280
O 0.04489954 -0.36144451 0.44563045
C 1.07050812 0.60836178 0.44318992
C 1.82654410 0.56770168 -0.82046666
N 2.43266500 0.55187714 -1.80133089
H -2.92218290 -0.73462194 -0.32756925
H -1.72561071 -1.84553511 0.25294107
H 0.64337303 1.60732435 0.56827751
H 1.74494044 0.38081817 1.27204051
