11

N 1.3469757 0.56893754 1.8391854
C 0.6401528 0.26573366 0.83482045
C -0.7658509 -0.17508182 0.8564368
C -1.1561315 -0.39540595 -0.3962411
C -0.01283315 -0.10778209 -1.325254
O 1.0543928 0.294437 -0.46942845
H 2.2841637 0.845772 1.5502725
H -1.3283194 -0.2809984 1.7728719
H -2.1299295 -0.7277721 -0.7388356
H -0.23220092 0.70182806 -2.028563
H 0.29958048 -0.9896679 -1.8952647
