9

O -1.5330021 1.2082597 -0.53523576
C 0.17179316 -0.63038856 -0.47040877
N 1.2641082 0.7604689 1.5084664
N 1.254419 -1.0010427 0.11133401
N 0.2848417 1.083957 0.9691519
C -0.45685002 0.5789082 -0.008365104
H -0.31570572 -1.1465523 -1.2982159
H -2.3204875 1.0030957 -0.012729077
H 1.6508831 -1.8567055 -0.2639978
