9

O 1.53486852 0.97372642 -0.39285794
C 0.44061566 0.14673928 -0.36298069
N 0.25600116 -0.64053751 -1.38732808
N 0.09244486 -1.32895648 -2.26963004
N -1.58224155 -0.54574938 0.70341585
C -0.55300319 0.20858280 0.68536450
H 2.26766302 0.55009095 0.07444083
H -0.30003704 0.97028514 1.43385587
H -2.15631167 -0.33418106 1.51571949
