15

N 0.0899665 -1.0990922 1.9793458
C -0.4171425 -0.63545394 0.80840665
O -0.13974641 1.4110689 0.39078864
N 0.18195894 -1.0415491 -0.34236416
C 0.3900786 1.296147 -0.8756165
C 0.025250876 -0.09766466 -1.4465735
O -1.671784 -0.22051023 0.81023705
H -1.0205264 -0.12386402 -1.7693849
H 1.0907581 -1.1718069 2.0648742
H -1.4381161 0.7503028 0.5317285
H 1.4936891 1.3949685 -0.86441916
H 1.1323743 -1.3587387 -0.22309087
H 0.014920484 2.0601258 -1.5750868
H -0.38738135 -0.74402565 2.792392
H 0.6557001 -0.41990745 -2.2812371
