10

O 0.23900807 1.4573954 -1.9647849
C 0.97768277 0.5126716 -1.4584233
C 0.4500493 -0.11410946 -0.24668561
N 1.1247088 -1.075071 0.33634543
O 0.38219947 -1.4438534 1.4144685
C -0.77010036 0.17999922 0.44556153
C -0.7383462 -0.69556504 1.4705714
H 1.2442229 1.1696104 -2.4841146
H -1.5091013 0.9222878 0.19081037
H -1.4003235 -0.91336566 2.2962515
