11

N 2.4749298 0.573034 0.43698603
C -1.0344213 0.62534726 -0.32497492
C 1.4859949 0.6328443 1.0994902
O 0.11548403 0.1506452 -1.0073144
C -1.7721709 -0.46045887 0.34244692
C 1.0345346 -0.49557287 -0.2491898
N -2.3248336 -1.3307393 0.86020845
H 0.62905896 -1.26195 0.4123328
H 1.7979512 -0.8912872 -0.9097076
H -1.6655684 1.0884138 -1.0856209
H -0.7409589 1.3697238 0.42534336
