9

N -0.69389707 -1.730064 0.7188273
C -0.040163286 -0.75852114 0.26564068
O -0.45947233 -0.009097808 -0.8166062
C -0.3110479 1.3521459 -0.7803288
O 0.059002917 1.9780312 0.1638526
C 1.2849276 -0.46835974 0.7863381
N 2.3514867 -0.29211026 1.1909024
H -1.5853448 -1.8206942 0.23187244
H -0.60549176 1.7486702 -1.7604984
