10

N -2.3481102 -0.5819983 0.91766804
C 0.1875268 -0.17160383 0.32307595
C -1.231847 -0.429296 0.6669118
O 0.8444456 -0.05086817 -1.9794574
C 0.42419416 -0.73012036 -1.0834094
N 0.60170275 1.1976382 0.40280765
H 0.383059 1.604429 1.299233
H 0.15504283 -1.7980349 -1.2087808
H 0.19071704 1.7422609 -0.3450699
H 0.7932691 -0.7824066 1.0070206
