10

N 0.03404593 1.24279696 -0.64259952
C 0.14495312 0.19700608 0.33040800
C 0.91018574 -0.99974550 -0.24261721
O 1.28988309 -1.03110461 -1.38092444
C -1.14003309 -0.31578746 0.86435890
N -2.16252983 -0.70267524 1.23457298
H -0.33065679 0.88446494 -1.51634666
H -0.53228569 2.00752466 -0.30894957
H 1.06166611 -1.83606599 0.46887674
H 0.72477141 0.55358619 1.19322051
