11

C 1.0100485 -0.8084689 -1.14289
C 0.21757428 -0.16316704 -0.059126154
C -0.8831867 0.63135177 -0.051778868
C -1.0926898 0.88275695 1.3326219
N -0.19990546 0.29189602 2.0765915
O 0.6300823 -0.3708255 1.2005005
H 1.0091233 -1.8978288 -1.0323112
H 0.58263344 -0.556261 -2.1142576
H 2.0504124 -0.46994027 -1.1196624
H -1.4587619 0.9848462 -0.8950148
H -1.8653308 1.4756405 1.8053273
