11

C -1.5331049 0.14765888 0.80926186
C -0.52567357 0.07624207 -0.33010167
C 1.8874503 -0.4338228 -0.78873974
C 0.85284483 0.12236248 0.059593268
N 1.5482912 -0.34014508 -1.9841298
O -0.8986736 -0.089972965 -1.484326
H -2.3113513 0.8653764 0.5404803
H 1.179934 0.70472443 0.917589
H -2.0050588 -0.83520633 0.9084643
H -1.090316 0.4269516 1.7692186
H 2.8956583 -0.6441686 -0.41730988
