11

C 0.21239822 0.121198535 -0.8823322
C 0.20500769 -0.029098196 0.6100727
C -1.1366351 0.11594292 1.2909125
C 1.3463703 -0.38099095 -1.640869
N 1.4112304 0.85373724 -1.4772382
O 1.2337871 -0.26059133 1.2070987
H -1.8721236 -0.56261176 0.84855294
H -0.7456825 0.2989725 -1.3712325
H 1.8886515 -1.1987234 -2.0966678
H -1.0317613 -0.093859784 2.3561056
H -1.5112431 1.1360242 1.155597
