12

O 1.0452195 1.0975689 -1.0117713
C 0.6015227 1.015205 0.31813422
C -0.44802782 -0.08942097 0.44894308
O -1.4923414 0.18826252 -0.44560653
C 0.15451631 -1.4378959 0.11384739
O -0.33149824 -2.1448104 -0.7357298
H 0.24183048 1.1333545 -1.5514519
H 0.16198172 1.9594259 0.669057
H 1.4727744 0.7914999 0.9452526
H -0.8096706 -0.13015494 1.490231
H -1.6377556 -0.63465214 -0.94068754
H 1.0414485 -1.7483826 0.69978136
