9

O -1.5055919 1.3078465 0.66648537
C 0.5593604 -1.1651424 -0.3279643
N 1.4957625 -0.23124775 -0.16221853
N 0.74964744 0.9377854 0.28730312
N -0.675594 -0.7919852 0.013884423
C -0.5095234 0.49531615 0.3160107
H 1.3930075 0.8251782 -0.76784843
H 0.80825317 -2.1586826 -0.6767903
H -2.3153222 0.7809317 0.65113795
