11

N 0.77327112 0.89047619 -1.05891635
C -0.48970564 -0.17797488 0.72674617
O 0.66629744 -1.08277789 0.73895460
C -0.26517512 1.00393142 -0.18895454
C -1.02299732 -1.48083481 0.23712493
O -1.03481892 1.94481536 -0.15950082
H -0.83952496 -1.45138349 -0.85579277
H 0.65637444 -1.56671280 1.57777395
H -0.77454521 0.16566385 1.72080439
H 0.91583144 1.63620577 -1.72193951
H 1.41499268 0.11859150 -1.01630038
