11

N 1.3716655 0.20073491 0.7458166
C 0.7163916 0.7264195 -0.32587984
O 1.2299296 1.439576 -1.1653224
C -1.0398782 -1.1333002 -0.76298565
C -0.7273619 0.2925017 -0.47789288
O -1.26275 -0.24096231 0.75487083
H 0.8594187 -0.22067568 1.502648
H -1.9901332 -0.90075475 0.3095266
H 2.322466 0.5026643 0.90015155
H -0.14676397 -1.7413068 -0.5506065
H -1.3329839 1.0751033 -0.93032616
