11

N 1.4911803 0.3202772 -0.43128127
C 0.5117646 0.8564747 0.3441627
O 0.5545838 1.9706454 0.829211
C -0.7282125 0.0092766415 0.5189097
C -1.7051435 -0.21799058 -0.58360034
O -0.5009813 -1.3789895 0.09909578
H 2.3074462 0.882504 -0.6147118
H -1.1348759 0.028995892 -1.5016369
H -1.0990399 0.092155755 1.540179
H -1.1337546 -1.9398608 0.57125115
H 1.4370325 -0.6234888 -0.7715788
