9

O -1.4410836 0.70547575 -0.8106206
C 0.6072311 -0.52914566 -1.2052677
N -0.24084307 0.15665933 1.1044557
N 1.011053 0.6572321 -0.9922656
N 0.6481434 -0.58008003 1.5639738
C -0.24799429 0.21375544 -0.33957592
H 0.5683795 -0.5167843 2.5913992
H 0.89791995 -1.3919165 -1.7853934
H -1.8028063 1.2848042 -0.12670581
