11

N 0.1488152 0.19467284 -1.9507511
C -0.25012526 0.103022546 0.41110185
O 1.5534472 -1.0284891 -0.6340383
C 0.45814666 -0.22087203 -0.652173
C -0.8262297 0.035483807 1.7172108
O -1.3579054 0.89714414 0.6716106
H 1.8048017 -1.1739043 0.28753787
H -0.6318791 0.83476114 -1.9592717
H -1.4713293 -0.80130535 1.9827646
H -0.37863845 0.57207406 2.5524132
H 0.9508965 0.58741236 -2.4264047
