9

O 1.2241229 -0.96634156 -1.2362342
C -0.9997119 0.99410444 0.41268802
N -0.39546013 0.7156963 -0.78033096
N -0.6418434 0.2424224 1.4286878
C 0.3866343 -0.28303036 -0.4519022
N 0.2665147 -0.5899393 0.84835625
H 0.7361253 -1.3058994 1.3795213
H -1.7308221 1.7829304 0.524477
H 1.1544402 -0.5899428 -2.125263
