9

O -0.5844004 -0.49743927 -1.9626789
C -0.41187748 1.1521862 0.016110586
N 0.48354065 -0.4116854 1.1509147
N 0.37827468 -0.9027317 -0.09725455
N 0.097563416 0.8547672 1.2024355
C -0.26608604 0.013050909 -0.8311898
H 0.039225537 -1.5378176 -1.1342115
H -0.8595887 2.1151376 -0.17442979
H 1.1233484 -0.7854681 1.8303039
