9

O 0.9785013 -1.4574 -1.4460518
C 0.18445791 -0.6631064 0.73777837
N -0.6167046 1.28674 -0.027117716
N -0.43391287 0.5061879 0.9940782
N -0.09163226 0.5845639 -1.0217837
C 0.45443994 -0.67182326 -0.67396784
H -0.76312226 0.83208615 1.8895072
H 0.3965512 -1.3970903 1.4957119
H -0.10857834 0.97984207 -1.9481544
