11

C -1.0413495 -1.3330973 0.42177856
C 0.34207487 -0.92472726 0.67888725
C -0.16630712 1.2615701 -0.6323331
O 2.0035894 0.24719782 -0.53030497
C 0.8395965 0.21448289 -0.22395113
N -2.1318645 -1.6388252 0.20134394
H -0.8934427 0.8203856 -1.3221356
H 0.34294435 2.096057 -1.1158779
H 1.017809 -1.7785639 0.5668433
H -0.7306742 1.6138617 0.23794085
H 0.41762382 -0.578341 1.7178087
