11

N -1.5513097 -1.282461 -0.9587493
C 1.0848482 1.4941148 0.7519998
C 1.3581004 0.19633074 0.69930536
C -1.5345598 0.44539222 -0.6611401
C -0.6095548 -0.4224339 -0.34764203
O 0.57069516 -0.7973642 0.1670878
H 1.8148394 2.1487641 1.2126826
H 2.268709 -0.25191772 1.0837685
H 0.17432961 1.9277378 0.35652113
H -2.1693318 -1.8528302 -0.3956592
H -1.4067655 -1.6053325 -1.9081745
