11

N 0.5600547 -1.411814 -1.364787
C 0.17518397 -0.4395703 -0.45188785
C -1.021312 0.10541683 -0.106760934
C -0.7107781 1.131511 0.8562082
C 0.6290259 1.1173612 1.0127184
O 1.1890087 0.15458712 0.21287127
H 1.429009 -1.8602812 -1.1074967
H -0.16385235 -2.0949366 -1.5389053
H -1.9946439 -0.16956861 -0.4831243
H -1.4118491 1.7832645 1.3557104
H 1.3201534 1.6840302 1.6154536
