11

N -1.108547 -0.78598243 1.7298782
C 0.26824614 -0.29819772 -1.467113
C 1.073465 0.7194582 -1.1943847
C -0.35919034 -0.19610386 0.697818
C 0.35699087 0.9072684 0.9120719
O -0.47076607 -0.87725556 -0.50257105
H 0.09227226 -0.7421054 -2.4428985
H -2.0911062 -0.5283239 1.681663
H 1.6146061 1.3140824 -1.920658
H 1.3613585 1.0117393 -0.12674059
H -0.7373294 -0.5245795 2.6329346
