11

N 0.54212576 0.15033945 1.6322507
C -0.3710624 -0.0028915238 -0.54073596
C 1.4417294 -0.072970174 0.71253425
C 0.9928088 -0.11292738 -0.6562052
N -1.5896999 -0.28780025 -0.9638596
N -0.64839274 0.3508231 0.84863645
H 2.4629638 -0.24957798 1.0385408
H -1.7722183 -0.533432 -1.9247482
H -1.7537698 -0.18981414 0.44161305
H -0.8823075 1.3406683 0.93129504
H 1.5778232 -0.3924175 -1.5193213
