11

N 1.037584 -0.019177936 -1.5517328
C 0.2788329 -0.027627299 -0.37452012
C -0.37540254 0.96868086 0.31882864
C -0.87326443 0.31844065 1.4711807
N -0.5718872 -0.9659496 1.4958673
N 0.13410258 -1.1568204 0.35988063
H 1.0274239 0.89731747 -1.9817014
H 0.731519 -0.70703894 -2.2304282
H -0.48251468 2.0041704 0.03142648
H -1.4514627 0.7458967 2.2792253
H 0.54506946 -2.0578918 0.18197407
