9

N 0.275854 -0.51377016 -0.8227635
C -0.6716365 0.69609374 0.78136516
C 0.2908037 -0.14957996 1.455339
C -0.62410414 0.4804004 -0.5685088
N 0.85778445 -0.77499425 0.41857737
H 1.4924943 -1.5574535 0.4743071
H -1.3393338 1.3841476 1.2836616
H 0.8847278 -0.49643612 -1.6315831
H -1.1665897 0.9315923 -1.3903949
