9

N 0.44226346 0.14403167 -0.89479209
C -0.85062009 0.06623694 -0.46427459
C 0.50387437 -0.38818579 1.34921274
C -0.85378903 -0.28826567 0.85680849
N 1.20049147 -0.04070039 0.26226131
H -1.65725845 0.25656006 -1.16175085
H 0.75117455 0.85181451 -1.54964652
H 2.20039836 -0.11741303 0.15042991
H -1.73653453 -0.48407835 1.45175160
