11

C 0.50876856 -0.9645979 1.501152
C 0.16544795 -0.12419789 0.32012296
N 0.63593435 1.0341265 -0.008106126
C -0.03164668 1.3587705 -1.1809384
C -0.8786562 0.3612591 -1.4997711
O -0.76339424 -0.6030792 -0.54240525
H -0.38561177 -1.197804 2.0870562
H 1.2144557 -0.41977182 2.1276407
H 0.9636665 -1.9116094 1.193543
H 0.15149896 2.2892978 -1.7016412
H -1.580463 0.17760614 -2.2966528
