12

O 0.5946145 -2.3376315 0.21395543
C -0.21339191 -0.10102651 -0.18894598
C -0.8125169 2.032567 -0.78322
N -0.88625246 0.8207185 -0.96290046
N 0.58751225 1.6994221 0.8179202
C -0.45207456 -1.5782728 -0.32444578
N 0.6183362 0.41035163 0.6661878
H 0.17227484 2.551661 -0.46375808
H 1.4448228 2.034665 1.2522612
H -1.4167764 -1.8185936 0.15237099
H 0.90879965 -1.880863 1.0052083
H -0.54534805 -1.8329977 -1.3846335
