12

O -0.41374840 1.55103178 -1.69317939
C -0.85403995 0.27811837 -1.31892520
C -0.16023989 -0.18853822 -0.06578304
N -0.56306564 -1.41287677 0.47145816
N 0.77016803 0.50243788 0.44631806
C -0.86496696 -2.43461740 0.96786976
N 1.47444998 0.01082176 1.50255543
H -0.66772585 -0.46444659 -2.10991924
H 0.37966572 1.75304554 -1.17898800
H 1.85800769 0.77359911 2.04127587
H -1.93698803 0.29763851 -1.14181817
H 0.97848322 -0.66621358 2.07913530
