11

C 0.3630119 0.5693692 -0.5876564
C 0.42824155 0.59971595 0.94787097
C -0.6497013 -0.14234388 1.6066285
O 0.7918344 1.5102805 -1.2069434
C -0.19875163 -0.6707842 -1.2341397
N -1.5089843 -0.73249 2.1025562
H 0.4275861 1.6430924 1.27562
H -1.2721027 -0.73728067 -1.0284188
H 0.2614258 -1.5699309 -0.8105526
H 1.3898547 0.16426674 1.2462375
H -0.032414347 -0.63389504 -2.3112025
