11

C -1.09256 1.0112219 -0.10158541
C -0.31803548 -0.3690641 0.15667528
C 0.5476088 -0.5915111 -1.0911113
O -0.98876756 -1.3640344 0.61295795
C 0.30154976 0.30426046 1.2944565
N -1.6985964 1.9874564 -0.23336092
H 1.240109 -1.4099203 -0.8798298
H 1.1017731 0.3101084 -1.3713553
H 1.3475478 0.6085284 1.361004
H -0.33569035 0.3966117 2.1693106
H -0.104938604 -0.88365734 -1.9171616
