11

C -0.9899772 0.89255345 -0.11569857
C 0.059346158 -0.19310342 -0.17266655
C 0.675145 -0.738063 1.0452936
O -0.31036803 -1.4664171 0.33369118
C 0.8390716 -0.24585812 -1.4093318
N 1.4462138 -0.25060454 -2.3907678
H -1.7197047 0.7608407 -0.91939276
H -1.5115936 0.8470166 0.8430597
H -0.527615 1.877778 -0.22533353
H 1.6806742 -1.1531948 1.006795
H 0.35880795 -0.3309478 2.0043516
