10

O 0.21247886 2.2122822 0.39200884
C 0.118247695 0.8840966 0.16280268
C -1.0035899 0.1937727 -0.21252199
N -0.56899095 -1.1186432 -0.3116779
C 0.74552387 -1.1398526 -8.2266815e-05
N 1.1946537 0.061348815 0.29323366
H 1.1281855 2.377616 0.6516805
H -2.0220084 0.48772943 -0.4085467
H -1.1362247 -1.9095839 -0.5666859
H 1.3317245 -2.048766 -0.00021084664
