11

C -0.59115588 0.47248099 1.63129007
N -0.27356339 -0.35475408 -0.59903046
C 0.39019114 0.28688599 0.50480124
O -1.74038979 0.10955928 1.56716973
C 0.36490336 -0.55745103 -1.77501718
O 1.52213504 -0.24871227 -1.97736858
H 0.79937795 1.26567633 0.21642599
H -0.19036068 0.96566468 2.53878801
H -1.24352366 -0.60057771 -0.44665288
H 1.24369674 -0.30113535 0.87187772
H -0.28131065 -1.03763671 -2.53228356
