11

C 0.9372297 -0.61059284 0.27889124
N 0.8782251 0.70611805 -0.25906396
C -1.2175537 -0.7736904 0.46091175
O -1.3316548 0.41251498 -0.4108988
C -0.27132413 1.1581018 -0.6331249
O -1.6149726 -1.8290349 0.04481211
H 1.8475932 -0.7410147 0.8656648
H 0.7755485 -1.3738549 -0.47607037
H -0.40302855 2.1283085 -1.0981948
H -1.2781746 -0.40434906 1.4896003
H 1.678112 1.3274935 -0.2625273
