11

C -0.7721551 0.8770081 1.5447978
N 0.5824867 0.5144551 1.1777749
C 0.83665836 -0.05334844 0.09646576
O -0.14332417 -0.38940796 -0.8399114
C 0.25074628 -1.02535 -1.9634687
O 1.3767828 -1.3353883 -2.2391503
H -0.78822684 1.9515276 1.7518283
H -1.0183734 0.3620894 2.47862
H -1.535097 0.6437204 0.7928975
H 1.8413804 -0.33086237 -0.20659515
H -0.63087785 -1.2144434 -2.5932586
