11

C -0.8495856 -1.0204598 1.2127147
N 0.13005266 -0.019976879 -0.73635054
C 0.77622116 0.9199222 -1.4648604
O 1.308532 1.8998559 -0.9833773
C 0.0033703204 0.10530424 0.69157547
O -1.31812 -1.8736047 0.49914518
H -0.4522111 1.0651373 0.974048
H -1.0219917 -1.0232273 2.307104
H 0.979239 0.0736305 1.1972069
H -0.3247821 -0.8241841 -1.1496872
H 0.7692754 0.6976027 -2.5475187
