10

N -1.5741322 0.8966712 0.6384608
C -0.3866404 0.94425595 -0.06435195
O 1.6637018 -1.8310088 -0.5910805
N 0.22723527 -0.32666516 -0.13519937
C 1.4627885 -0.5103295 -0.6657709
O 0.05073268 1.9375248 -0.58414716
H -1.6938605 0.21078955 1.3667338
H -0.315028 -1.1323118 0.17453887
H 2.535493 -1.9955443 -0.9668133
H -1.9702902 1.806618 0.8276297
