10

N 0.43574537 1.50437139 1.11199650
C -0.43502755 0.89620600 0.22981952
O -1.45489980 1.39772156 -0.16566502
N -0.00249368 -0.40427542 -0.11480445
C -0.62457441 -1.15199101 -1.06125438
O 0.04354807 -2.31119374 -1.06130123
H 1.41305965 1.26006278 1.09410289
H -0.37939584 -2.86928143 -1.72305914
H 0.77028621 -0.80273956 0.41725881
H 0.23375225 2.48111903 1.27290654
