10

N 1.4810375 0.5024434 0.9186643
C 0.2234835 0.62338203 0.37724698
O -0.44942352 1.6275966 0.44403583
N -0.2304324 -0.54898965 -0.23190786
C -1.4591109 -0.6407594 -0.8683497
O -1.8549677 -1.6707213 -1.3579346
H 1.8794328 1.3773721 1.2229452
H 2.12848 -0.16829623 0.5330883
H 0.290903 -1.4124773 -0.1648932
H -2.009402 0.31044936 -0.8728952
