10

N -1.24276174 -0.00995644 -0.52096654
C -0.68179655 -0.38097060 0.69723919
O -1.25342843 -0.84030896 1.65148490
C 0.79955636 -0.06661478 0.52603277
C -0.37321141 0.49513303 -1.45562174
N 0.81279455 0.45374616 -0.83040901
H -2.23086416 -0.10818186 -0.69679007
H 1.39766750 -0.97611228 0.64329079
H 1.65084273 0.76737748 -1.28678369
H 1.12120148 0.66588836 1.27252361
