10

N -1.053643 0.62759143 -0.5585047
C 0.64087784 -0.4488915 0.55516696
O -1.4833412 0.12053706 1.6702617
C -0.768318 0.11241643 0.7022661
C -0.0639376 0.4964805 -1.5008988
N 0.9157208 -0.13430257 -0.83637184
H -1.9371102 1.070974 -0.75801945
H 1.3222606 0.047568988 1.2526693
H 1.781692 -0.3683297 -1.288359
H 0.6457987 -1.5240449 0.7617899
