11

O 1.5118276 1.4431305 -1.0113602
N 0.23247884 1.4653002 -0.4480419
C 0.4881389 -1.0696678 0.03284976
C -0.09350915 0.31861475 -0.039941635
O -0.71156514 -1.5230669 0.6894066
C -1.3217926 -0.21927252 0.639961
H -1.5282637 0.181059 1.6386614
H 1.6360908 2.3617976 -1.2787181
H 1.3768 -1.1773835 0.66480106
H -2.2410498 -0.21603043 0.043608002
H 0.65084434 -1.5644805 -0.93122613
