11

O -1.2761116 -0.17908616 1.9297041
N -1.1667917 -0.7683238 0.671679
C -0.23973289 -0.23019168 0.007686094
C 0.29619378 -0.4658821 -1.3766704
O 1.2579786 0.5873873 -1.172021
C 0.7909092 0.85805506 0.16341817
H -2.0039995 -0.67048794 2.328554
H -0.3917102 -0.24493305 -2.199607
H 0.77544314 -1.4367671 -1.5451815
H 1.5624303 0.6760462 0.91982037
H 0.3953908 1.8741834 0.2726183
