11

N 2.0903783 0.84827375 0.6398824
C 0.47015023 -0.49059623 -0.8545567
C -1.211436 -0.6758145 0.30563468
C -0.41697505 0.56098014 -0.10354878
C 1.0165699 0.3695703 0.18489763
O -0.29095578 -1.5738271 -0.34458888
H 1.8876069 1.614702 1.2844646
H 0.80860585 -0.5430832 -1.8828849
H -1.3060198 -0.88473964 1.3775572
H -2.1925669 -0.7248822 -0.17966227
H -0.8553574 1.4994168 -0.42719495
