11

O 1.7687478 0.42480507 -0.94445884
C 0.7661278 0.23606314 -0.15985614
N 1.3685737 -0.14821792 1.0441823
C -0.4690069 -0.84242535 -0.37881044
C -1.3437963 0.29354605 0.06624983
C -0.38024372 1.2222674 0.12931971
H 1.9961811 -0.9276948 0.75547165
H -0.4581562 -1.7375787 0.25168562
H -0.52000374 -1.1086339 -1.4344305
H -2.406615 0.31314802 0.2880313
H -0.32180905 2.274721 0.38261542
