11

O 1.2551086 -0.6610036 -2.1028614
C 0.6236088 -0.34945554 -1.1146635
N 1.1423678 0.031435248 0.101058125
C 0.128618 0.33976886 1.0813824
C -1.1405524 0.09380399 0.30529454
C -0.8609812 -0.29309452 -0.9368606
H 2.1350608 0.08151044 0.26037672
H 0.19059038 1.3797313 1.429392
H 0.19351177 -0.31076056 1.9635658
H -2.1200244 0.23049757 0.74892443
H -1.5473084 -0.54243326 -1.7356087
