11

O -1.24631913 -1.50742434 -0.23876182
C 1.36188702 0.49845063 -0.06039953
N -1.62688023 -0.64562421 0.87180163
C 0.97416380 -0.55383589 0.67739067
C -0.41882170 -0.46994302 0.15439707
C 0.02156293 0.71069283 -0.74359728
H 2.29612791 1.03995970 -0.15118162
H -0.47497605 1.66665384 -0.55461220
H 1.45317459 -1.20854738 1.39238685
H -2.33845741 -0.02175587 0.46858165
H -0.00146197 0.49137364 -1.81600558
