11

O -1.92399851 0.00677878 -0.65830105
C 0.08546578 -0.43959102 0.75091793
C 0.70062241 0.34729798 -0.99268761
N 1.38234768 -0.29701884 0.18347431
C -0.60887850 0.07547089 -0.27097760
O -0.11486146 -1.04074526 1.93589267
H -1.06753821 -1.09663194 2.08259619
H 1.97408913 0.35657561 0.69481222
H 0.86655099 -0.21482866 -1.91601655
H -2.27879662 0.90582757 -0.67764276
H 0.98499732 1.39686462 -1.13206780
