11

O -1.5042795 -1.0422378 0.37967235
C -0.16672419 -0.77146643 0.06700761
C 0.030111229 0.23353262 -1.0922028
N 0.76088065 1.078961 -0.14686486
C 0.5040333 0.3045124 0.94851226
O 0.67906123 0.44464496 2.1329217
H -1.5631638 -1.1290315 1.3398628
H 0.4347747 -1.6839379 -0.03848926
H 0.6310242 -0.114797965 -1.9354795
H -0.9169684 0.65719295 -1.4348067
H 1.1112506 2.0226274 -0.22013365
