11

O -0.38141406 -1.8374629 1.1499033
C -0.5633456 0.3539533 -0.084950395
C 0.75063884 0.6324918 -0.79587173
N 1.2313471 -0.67870295 -0.23646286
C -0.03492219 -0.7739706 0.40518183
O -1.8458444 0.8257033 -0.21505608
H 0.7181058 0.6199517 -1.8889588
H 2.0043514 -0.561506 0.41740206
H -1.912249 1.6550118 0.27726737
H -1.3028215 -1.7255453 1.4158375
H 1.3361534 1.490076 -0.4442923
