11

O -2.129195 -0.3088689 -0.26317558
C 0.895068 0.6150662 0.40769935
C 0.21177202 -0.42863342 -0.509427
N -0.4233363 0.75985384 1.1189766
C -0.9676113 -0.1237375 0.25000203
O 0.741494 -1.7109319 -0.62038714
H -0.86739945 1.6460899 1.3348497
H 1.6773553 0.21825968 1.0604137
H -1.2363397 -0.33932436 -1.1717284
H 0.8942848 -1.8841985 -1.5529506
H 1.203908 1.5564249 -0.05427287
