10

O 0.46443940 -1.04667102 -1.71475585
C 0.01398276 -0.29755947 -0.47854273
N -0.93784822 -0.76300863 0.27004647
C -0.93633432 0.23979832 1.22252397
C 0.03457446 1.17503436 0.91990485
N 0.68688128 0.79517870 -0.23775920
H 1.20212479 -0.47319961 -2.01621011
H 0.79694881 -1.92531862 -1.45307868
H -1.63216983 0.21081447 2.04958756
H 0.30740096 2.08493127 1.43828379
