11

N -0.868003 -2.6959443 0.15898353
C -0.88853574 -1.5556862 0.3490088
C -0.86236215 -0.11084038 0.6142255
C -0.023004206 0.6323368 -0.4666
C 1.3990234 0.38323203 -0.38548997
O -0.45609942 0.6498232 -1.6740795
H 0.13824414 1.6918262 0.0069572376
H -0.46100697 0.072488405 1.6188749
H 1.9306918 0.2598376 -1.3300358
H 1.9755559 0.39685154 0.5335736
H -1.8845037 0.27607527 0.5745819
