11

N 2.33887629 -0.80610726 1.06993606
C -0.95264966 0.64363167 0.83216440
C -0.76332451 -0.12881280 -0.44863755
C 0.68350696 -0.37001165 -0.90944477
C 1.62312421 -0.61729140 0.18588861
O -1.67164440 -0.52526698 -1.13353245
H -0.61269357 0.03672475 1.67907900
H 0.69067755 -1.20716875 -1.61379736
H -2.00562287 0.89698966 0.96114616
H -0.34241949 1.55295594 0.82931765
H 1.01216941 0.52435707 -1.45211955
