9

N 0.81203455 0.029953228 1.2808555
C 0.3231422 -0.3902947 -0.85138446
C -0.33390647 0.6562591 0.9584063
C -0.7080593 0.41581118 -0.3574861
N 1.2868264 -0.57609355 0.20188211
H -0.85776395 1.2387227 1.7081009
H 0.47462636 -1.4818919 -0.18904562
H -1.5865527 0.76128525 -0.88287354
H 0.5896531 -0.65375113 -1.8684552
