9

O -1.1343501 0.04662328 0.9650309
C 0.83175206 -0.75952834 -0.049269866
N -0.66908413 1.0312071 0.14530073
O 1.078108 1.319282 -1.3326102
C 0.39646646 0.5786249 -0.44889265
C -0.28809914 -1.0433574 0.78538865
H 0.648692 2.1839826 -1.4039134
H -0.49329904 -1.5717973 -0.23608002
H -0.3701862 -1.7850367 1.5750458
