11

C -1.12955255 -0.10139063 -0.71889676
N -0.38761486 0.49696012 0.44442412
C 0.84000205 -0.20683427 0.92849530
C -0.32319353 -0.05827492 -1.86820172
N 0.34135097 0.05222283 -2.82283673
H -1.51240465 -1.07468051 -0.43197530
H -1.05455780 0.59166146 1.20880165
H 0.54375666 -1.20449318 1.25640055
H -0.14327504 1.45043709 0.17601019
H 1.51889978 -0.28841942 0.07683904
H 1.30658860 0.34281152 1.75093958
