11

N 0.17119176 -0.86790460 1.06687834
C -0.77215223 0.79825625 0.14065147
C -0.21409782 -0.01865129 -1.05371804
C 0.90089474 -0.10063087 0.00834080
C -1.01698038 -0.31035447 1.20762333
O 0.60929694 1.22714949 0.41142602
H -1.47810496 1.61847267 0.04310222
H 0.04664559 0.61084924 -1.90522166
H 1.95417684 -0.34127245 -0.13378853
H -0.71328773 -0.94123968 -1.35455294
H 0.51241741 -1.67467429 1.56925854
