10

N 0.29279561 0.20690805 3.16885191
C 0.24834324 0.28386876 2.01470449
C 0.16302921 0.30066684 0.59204293
N 0.48415800 1.22214607 -0.22444879
C 0.20619993 0.75147844 -1.52418357
C -0.31622704 -0.50060617 -1.64470751
N -0.36406406 -0.86979786 -0.14130723
H -1.32944807 -1.09717703 0.10662865
H 0.42561125 1.42085432 -2.34673308
H 0.18960191 -1.71834159 -0.00084784
