10

N 0.510975 0.9540546 -0.7791737
C -0.17128594 0.6167167 0.24044856
C -0.83340454 1.4398694 1.1972898
N -0.22472319 -0.85633844 0.35389638
C 0.58749026 -1.4157624 -0.84032196
C 0.9524192 -0.23055863 -1.4036076
N -1.3907387 2.051753 2.0065687
H 1.5547613 -0.1203156 -2.2968173
H 0.19003579 -1.21095 1.2190709
H -1.1755292 -1.2284689 0.3026459
