11

N 1.20883317 -1.68729149 -1.56207213
C -0.15953978 0.60546093 1.10670729
O 0.32838481 0.51635135 -1.22921789
C 0.67903099 -0.62735556 -1.32845425
C -0.44696111 1.17248070 -0.22459991
O -0.58501932 -0.76278325 1.19743063
H 0.90608330 0.57122300 1.39636631
H -1.52078944 -0.76410260 0.96508098
H 0.60569941 -2.48088227 -1.75911843
H -0.34936784 2.23229666 -0.42270838
H -0.66635361 1.22460249 1.86058552
