9

O -1.1052641 -1.6384764 1.104337
C 0.468829 0.37937167 -0.12730479
N 1.141606 1.1766101 0.5129824
O 0.6144996 2.434208 0.756456
C -0.9258173 -1.6084358 -0.09092428
C -0.12717058 -0.5868269 -0.7950921
H 1.3127893 2.8594835 1.270554
H -0.019621512 -0.63309765 -1.8736845
H -1.3598504 -2.3828363 -0.75732374
