9

O 2.0882027 0.523075 -0.5255772
C 0.77897376 -0.10507652 0.21214576
N 1.7024685 0.29241976 0.98214424
O -1.6817012 0.2246529 1.4723679
C -0.3642204 -0.4942579 -0.3663809
C -1.6040281 -0.29022166 0.375307
H 1.9173131 1.472325 -0.65655875
H -2.5081313 -0.6440685 -0.16009624
H -0.32887706 -0.9788479 -1.3333517
