9

O 1.7994632 1.0559214 0.8861908
C 1.8052629 -0.06700431 0.44159162
N -1.6970552 0.25267127 0.16818327
O -2.2737217 0.96174276 -0.87156725
C 0.610659 -0.7819951 -0.051690824
C -0.57693946 -0.21513504 -0.0125550525
H 2.7444706 -0.6564618 0.38199684
H -3.118611 1.2381852 -0.49582148
H 0.706472 -1.7879244 -0.4463278
