10

O -0.9526391 1.8531259 0.9979461
C -0.2959204 1.1032645 0.025936548
C -0.13831683 -0.33798584 0.46722758
O -0.56641763 -0.70629907 1.5388373
C 0.54076654 -1.2344837 -0.4573598
C 1.1035914 -1.9447988 -1.2467383
H -1.1519094 1.2389321 1.7226691
H 0.70537376 1.5091794 -0.18457222
H -0.84743094 1.1085804 -0.9260873
H 1.6029023 -2.589515 -1.9378593
