11

N -0.5974996 1.2775043 -0.31600755
C 0.47500113 -0.818985 0.046826836
C -0.6962914 -0.08578288 -0.40230554
N -1.680117 -0.95205504 -0.4952512
C 0.520176 1.4120144 0.37792352
N 1.1766143 0.27156904 0.6837355
H 1.0708883 -1.2657378 -0.75460994
H 2.0888538 0.24278387 1.1062562
H 0.87741494 2.3772287 0.7216655
H -2.5245264 -0.76455593 -1.0253139
H -0.7105136 -1.6939837 0.057080463
