11

N 1.33304462 0.23187452 1.75880296
C 0.70362254 0.11005687 0.67189771
C -0.81795623 -0.04116581 0.59329520
N -1.01938923 -0.00323257 -0.84825465
C 0.21763778 -0.01358485 -1.42236509
N 1.24029305 0.08823354 -0.63852065
H 2.32897591 0.31760823 1.56489881
H -1.13923804 -0.99526800 1.02447074
H -1.32899649 0.77918295 1.10543987
H -1.82411529 -0.39535869 -1.30748970
H 0.30612145 -0.07834616 -2.50217488
