10

O 1.4483654 -1.2709498 0.8691728
C 0.547665 -0.45421937 0.31980562
C 0.8820307 0.89476657 0.08437159
N 0.006146005 1.7147187 -0.45233783
N -1.206994 1.258728 -0.7751086
C -1.4667594 -0.01505076 -0.53442097
N -0.6405107 -0.9212055 0.007887626
H 1.0320753 -2.1437225 0.9522186
H 1.8573833 1.2971377 0.33502865
H -2.4594011 -0.36020288 -0.8066177
