10

O 1.5227653 -0.016644783 1.4120257
C 0.88794124 0.5472693 -0.82682836
C 0.54774594 0.08850154 0.4945206
N -0.6787412 -0.21497913 0.7454244
N 0.090953656 0.0119021125 -1.7275219
C -1.775337 -0.689115 0.30774525
N -0.7775653 -0.5314965 -2.2003455
H 1.1325587 -0.3475812 2.2331212
H -2.6216266 -0.07995285 0.6743109
H 1.6713057 1.2320966 -1.1124524
