11

C 0.60089576 0.014740867 -1.0074908
C -0.14638612 -0.05427858 0.16209197
C -0.56793535 -1.2419939 0.9663798
N -0.5017863 1.1947489 0.5093553
N 0.60690117 1.2842313 -1.4293888
N -0.112906925 2.0116818 -0.4373207
H -0.61117244 -0.9790227 2.0258646
H 1.0764204 2.1818054 -0.71550065
H 0.12470723 -2.0752363 0.8318998
H 1.0987215 -0.7676978 -1.5647359
H -1.567459 -1.5689789 0.6588453
