11

C 0.18715742 1.66932260 -0.08224679
C -0.02799878 0.19151821 -0.00024446
C 0.89294536 -0.86550449 -0.10994232
N -1.23168231 -0.33930645 0.20234981
N 0.24656483 -2.01984469 0.02557379
N -1.00039738 -1.63843094 0.20670110
H -1.74286688 -2.30817434 0.34317943
H -0.76523719 2.18552271 0.05711417
H 0.88418003 2.01362559 0.68883279
H 0.59668995 1.95586773 -1.05671901
H 1.96064492 -0.84459602 -0.27459847
