10

N 0.8439138 0.90660894 0.075098544
C -0.60914034 -0.39978367 -0.885917
C 0.36279622 0.62894684 -1.1913505
C 0.19539636 0.24052984 1.0890772
C -0.71706957 -0.6066238 0.5391173
H -1.2702792 -0.8155574 -1.6387826
H 0.44515654 0.4142881 2.129029
H 0.54137605 -0.65587443 -1.4054177
H -1.3793044 -1.2823433 1.0609002
H 1.5871545 1.569809 0.22824554
