10

N -1.26836789 0.32498737 0.18758665
C -0.65087569 -0.94014530 -0.07907577
C 0.66019428 -0.73902471 -0.18785564
C 0.89709186 0.73285159 0.02087357
C -0.46048760 1.37440588 0.26724891
H -2.26860227 0.41120930 0.30631366
H -1.25034162 -1.83689456 -0.15801613
H 1.41329829 -1.48987866 -0.38814527
H 1.37280384 1.21753916 -0.84211417
H 1.55528671 0.94494971 0.87318417
