10

O -0.70735717 -0.65771234 -1.7859594
C -0.46603185 -0.66397715 0.67891467
C -0.17492123 -0.131394 -0.69142205
N 0.63230395 0.8694374 -0.6671578
C 0.8918666 1.0198572 0.71452194
N 0.32327235 0.21131761 1.5306115
H -0.3754847 -0.1480222 -2.5407004
H 1.5609945 1.8119456 1.0368507
H -0.1547854 -1.7080468 0.79353416
H -1.5298569 -0.6034055 0.93080693
