9

N 1.3048344 0.398181 0.19162156
C 0.8489901 -0.6587682 0.818896
C -0.66070914 0.49083245 -0.62461776
C -0.5763105 -0.6884501 0.30205804
N 0.44078234 1.1298705 -0.6900591
H -1.2874328 -0.6219798 1.1340773
H -0.7890306 -1.6416208 -0.19849521
H -1.5214959 0.8199115 -1.196911
H 2.2403724 0.7720232 0.26343024
