9

N -0.21340097 1.36436437 -0.20011977
C -0.70044739 0.29682169 -0.69919301
C 0.91404449 -0.40947427 0.90675451
C -0.08923884 -0.93773318 -0.10014637
N 0.74515339 0.88127359 0.75230508
H -1.46903766 0.34845503 -1.46297924
H 0.40509989 -1.57453588 -0.84475991
H 1.23787567 1.60724176 1.25264576
H -0.83004860 -1.57641308 0.39549277
