12

N -0.8162743 0.28393388 -0.29145306
C 0.3913347 -1.2087471 0.014089571
C 0.6297881 1.9800286 0.77331126
O -0.2053224 -2.117076 -0.7836041
C 0.5671803 0.86990196 -0.10666188
N 0.6411358 2.8111136 1.5871909
H -1.3192407 0.32441807 0.5888391
H 0.18008567 -1.2329794 1.0769376
H -1.400363 0.70287645 -1.0220511
H -1.1264018 -2.2351196 -0.5216771
H 1.4422799 -1.2128464 -0.23303257
H 1.0157976 1.034496 -1.0818887
