12

N -0.07307907 -2.84888606 0.38549622
C -0.18428368 -1.74222894 0.07376805
C -0.25853821 -0.31988220 -0.32039696
O -0.58347544 1.91808346 0.48242513
C -0.52053197 0.58403328 0.89547015
N 0.94837440 0.16502692 -0.98116896
H 1.05151979 -0.22658309 -1.91030792
H -1.09347994 -0.19576485 -1.01804676
H -1.47227699 0.32723767 1.36657685
H 0.27995126 0.41348112 1.63551632
H 1.77146256 -0.10211518 -0.44818034
H 0.13435713 2.02759771 -0.16115159
