11

N 1.6139612 -1.6018894 0.6419997
C 0.7579999 -0.7350739 0.30469576
C 0.85708296 0.6704386 0.7397205
N 0.022446774 1.5866929 0.4311544
C -1.0534108 1.2055907 -0.37557158
C -1.2025914 -0.0491167 -0.8046282
O -0.32688022 -1.0396899 -0.491155
H 1.3920008 -2.5165691 0.25513023
H 1.7120576 0.9111135 1.3678108
H -1.7630862 1.9792985 -0.63948655
H -2.0095804 -0.41079494 -1.4296703
