11

N 0.98461917 1.39295906 1.13867736
C 0.37694060 0.53225397 0.43764794
C -1.19099328 -0.78263108 -0.64078461
O -2.24779870 -1.21658368 -1.00046254
C 1.06798357 -0.50996181 -0.41505844
O 0.01501235 -1.25742362 -1.02952309
N -0.97302305 0.27634230 0.23159837
H 1.68178317 -1.17968921 0.19209758
H 0.34563501 2.01025093 1.63665439
H -1.74399962 0.78068158 0.63933704
H 1.68384098 -0.04619851 -1.19018391
