11

N 1.196189 1.6365973 -0.3115722
C 0.9683863 -0.7251493 0.33062038
C -1.2999743 -0.8634384 0.07824461
O -2.4110065 -1.3103938 0.05929464
C 0.45773396 0.62737143 -0.11746905
O -0.189941 -1.5593483 0.41666833
N -0.9130449 0.43359077 -0.2347868
H 1.4468886 -0.6665212 1.3111924
H 1.6669608 -1.1481643 -0.39617273
H 0.6677066 2.4524038 -0.6157058
H -1.5898985 1.1230524 -0.5203138
