11

O -1.8736571 0.93216354 -1.3852459
C -1.1092153 0.44400325 -0.5744128
N -1.4792771 0.05502815 0.67465186
C 1.8139905 -0.80043215 1.0035657
C 0.3162987 0.20148806 -0.93631345
C 1.2548357 -0.3519662 -0.0818427
H -2.4220338 0.2761208 0.95403457
H -0.799746 -0.16373406 1.3859366
H 1.7316798 0.67283577 -0.37618336
H 0.60421723 0.5828241 -1.9114587
H 1.9629076 -1.8483313 1.2472682
