11

O 0.40620821 -2.37703495 -1.18633020
C 0.32405366 -1.22157467 -0.81969378
N 0.75609376 -0.16410477 -1.56271457
C -0.25613721 -0.88273084 0.51542665
C -0.40501969 0.32985684 0.97996348
C -0.56081251 1.53452235 1.45287089
H 1.04355488 -0.35206272 -2.50859996
H -1.48392190 2.08522945 1.29366412
H 0.52675957 0.78240407 -1.30169437
H 0.22111685 2.00915030 2.03827031
H -0.57189578 -1.74365519 1.09883746
