11

O 1.7517439 -0.9179147 -1.8326445
C 0.7329713 -0.26683176 -1.9161197
N -0.034190714 0.086181566 -0.85521996
C 0.3395624 -0.3235259 0.49037775
C -0.5786835 0.25103283 1.4722269
C -1.3436971 0.72413987 2.267786
H 0.32818535 0.105049275 -2.87687
H -0.87891376 0.62268674 -0.99370086
H 0.33200276 -1.418361 0.5624694
H 1.3671432 -0.0017794509 0.6953983
H -2.016124 1.1393224 2.9862967
