11

N -1.32461366 -1.22602879 0.00690226
C -2.40001388 -1.24070686 0.47370393
C 0.14720003 1.20762848 -0.12190301
O 0.21945413 0.16367292 -1.06168203
C -0.01300386 -1.11368194 -0.54795474
C 1.15017002 1.06173177 0.95452406
N 1.93661346 0.92261805 1.78709468
H -0.84884838 1.26926437 0.33490575
H 0.33953035 2.12928955 -0.67555804
H 0.71039143 -1.37177423 0.23668411
H 0.08312016 -1.80201313 -1.38671695
