11

N -2.1488438 1.0431834 0.91176254
C 1.6737832 -0.8186446 -0.024404593
C -0.49998674 1.0650593 -0.003217711
O -0.32249898 0.12159191 -0.9660869
C -1.3574768 0.28047144 1.3714956
C 0.32353097 -1.0723003 -0.5544425
N 2.7270133 -0.593049 0.3900418
H 0.3886932 -1.7000828 -1.4450083
H -0.89932936 1.9527053 -0.4815786
H -0.2766318 -1.5702766 0.2171129
H 0.391747 1.291342 0.5843258
