11

N -1.0803466 -1.1505407 -0.8757299
C -2.2061281 -1.4502966 -0.7439449
C 0.7599644 0.53281343 1.58109
O 0.38271424 0.6681611 -0.78051794
C -0.035439514 1.1225814 0.4831664
C 0.2743266 -0.7094015 -0.9809207
N 1.3898914 0.054309495 2.4208791
H 0.6377264 -0.9004586 -1.9898803
H -1.0951977 0.8988804 0.6605251
H 0.87187725 -1.2723445 -0.2518124
H 0.10061175 2.2062962 0.47714552
