11

C -0.56587332 -1.20383066 -0.08210132
C -0.15038943 1.15842691 -0.35028231
C 0.51223258 -0.02763252 -0.19156395
O 1.73086867 -0.17477496 -0.80526259
C 0.12526180 -0.75238257 1.09380799
N -0.75997076 2.17254494 -0.52959648
H 2.20572064 -0.79143031 -0.22278962
H -1.61984511 -1.01582689 -0.29499425
H -0.13700952 -2.02451879 -0.66487137
H -0.44853973 -0.18842727 1.83008584
H -0.89245581 2.84785210 0.21756807
