11

C 0.32984385 -0.087774634 -0.4678702
C -0.8810589 0.19174056 -1.1151097
C 0.68099254 0.779684 0.7181563
O 1.2628093 -0.9141847 -1.011124
C -0.43452403 -0.1467953 1.020219
N -2.0514207 0.38251698 -1.1418482
H 0.4820348 1.8503671 0.64829314
H 1.6880107 0.5382726 1.0621152
H -1.8178111 0.20913514 0.101926185
H -0.08660748 -1.0769742 1.4899031
H 0.82773125 -1.7259877 -1.304661
