11

C -0.2857131 0.16172695 1.2924389
C 0.49830636 0.22654065 -0.014581648
C 0.045484763 -1.1165403 0.726244
O 1.8038175 0.6421694 -0.09360221
C -0.305558 0.41584587 -1.104977
N -0.9991758 0.52880365 -2.0736427
H -1.3311999 0.4706312 1.2618716
H -0.67146593 -1.7955126 0.26094446
H -1.7643235 1.1964138 -2.0999599
H 2.0266109 0.86762416 0.8253952
H 0.9832167 -1.5977027 1.019869
