12

N 0.3574753 -0.09942371 0.48435625
C -0.5220016 -1.1095958 1.0566553
O -0.6088555 1.4802372 -0.84447557
N 1.0019914 0.15567283 -1.7392364
C -0.68352467 0.33128545 1.4677949
C 0.24596962 0.48853463 -0.69780713
H 1.7708863 -0.4831912 -1.6035497
H -0.1636638 0.5323033 2.4133723
H 0.012593302 -1.8513683 1.6527637
H 0.93502855 0.6801487 -2.5974288
H -1.0998592 1.4248431 0.042045183
H -1.2460395 -1.5494462 0.36550954
