12

N -0.26763642 -1.4576017 -0.7949643
C 0.4362051 -0.18003164 -0.6581956
O 0.00343512 2.1105516 0.075513676
N -1.3857216 0.45678797 0.71504396
C 0.8126153 -1.467468 0.06611445
C -0.29640007 0.8065396 0.05954382
H 1.7791624 -1.8684012 -0.26612246
H -2.0379424 1.1563594 1.0376433
H 0.82979596 2.2462702 -0.4086879
H 0.6815543 -1.528327 1.1574523
H 1.1436907 0.20254931 -1.4110878
H -1.6987584 -0.4772287 0.4277465
