12

N -0.2979586 -0.8305695 1.7685608
C 0.098020494 0.29290134 1.0836622
O 0.8542063 1.1275684 1.5290364
N -0.49723357 0.37519875 -0.18706977
C 0.2709765 0.9365083 -1.2723659
C -0.0687248 -0.51291513 -1.2553409
H -1.1461788 -1.2892942 1.475292
H -0.103281915 -0.8178041 2.7582474
H -0.27328843 1.6138 -1.925699
H 1.2980931 1.21508 -1.0520569
H -0.86748403 -0.8985313 -1.8868588
H 0.73285395 -1.2119426 -1.0354075
