12

N -0.06944347 -1.32884760 -1.02836852
C -0.42401816 0.71941296 0.21108812
O -0.34887773 2.03480924 0.44494705
N -1.39221858 0.07685983 0.83425862
C 0.41549353 0.01280273 -0.69506039
C 1.05188615 -1.28927952 -0.22242064
H -2.13046103 0.58529081 1.29832597
H 1.00611700 -1.55344715 0.84529644
H 0.40841222 2.39438811 -0.03771009
H 0.99617778 0.63534941 -1.39434012
H -1.56107611 -0.83687977 0.39895862
H 2.04800860 -1.45045909 -0.65497503
