9

C 0.7735628 0.11895745 -1.6547205
C 0.15156244 0.023740197 -0.33285156
C -0.34804636 -0.04321495 0.7621906
C -0.97001487 -0.15073118 2.0659318
O -0.6570849 0.5176555 3.0242486
H 0.8145181 1.1612221 -1.9830927
H 0.21458612 -0.45699582 -2.3969352
H 1.7965606 -0.26490533 -1.6184053
H -1.775644 -0.9057281 2.1336343
