9

C 0.022171155 -1.3869615 1.3168957
C -0.058673475 -0.32261384 0.3281042
C -0.32346162 1.6037227 -1.4348414
C -0.09963261 0.5568143 -0.4995949
O 0.6914721 2.0424016 -2.1410866
H -0.37010288 2.5136094 -2.2888606
H -0.03643338 -2.3614872 0.82396215
H 0.97087145 -1.3328273 1.8576167
H -0.79621065 -1.3126584 2.037805
