9

C 0.87349129 0.18342344 -1.72347952
C 0.15792730 -0.02786128 -0.47114048
C -0.43671880 -0.20215477 0.56750037
C -1.28895426 -0.59692670 1.64796064
O -0.95095724 0.10775502 2.71064174
H 0.19493247 0.57216720 -2.48934762
H 1.68681761 0.90098224 -1.58729375
H 1.29963273 -0.75834915 -2.08324949
H -1.53617116 -0.17903614 3.42840816
