12

N -1.9499053 0.9405592 -0.4991163
C 0.61868393 -0.1714057 1.159288
N -0.2955498 -0.71011835 -0.6534919
C -0.788534 0.42473155 -0.017993001
C 1.1086768 -0.74227005 -0.77147055
C 1.791022 -0.3058236 0.30009323
N -0.15946952 0.92612255 1.0334865
H 2.8214226 -0.020482365 0.457439
H -2.4046435 0.3850442 -1.2062497
H -2.537072 1.4425943 0.14937152
H 1.5181978 -1.1392235 -1.700837
H 0.27717128 -1.0297283 1.7494801
