12

N -0.29191598 -0.83565295 1.7675638
C 0.098733716 0.29316416 1.0852218
O 0.85186136 1.1299744 1.5325396
N -0.49589482 0.37740526 -0.18506011
C 0.27032408 0.9363496 -1.2737159
C -0.070837654 -0.5119358 -1.2552005
H -1.1438962 -1.2897676 1.478678
H -0.1035383 -0.81936103 2.7585943
H -0.27593493 1.6127508 -1.9260916
H 1.2978863 1.2150061 -1.0573157
H -0.8686566 -0.89575756 -1.8881032
H 0.73186916 -1.2121753 -1.0371108
