11

N -0.79103965 -1.2191955 -0.92851055
C -0.7495495 0.9856241 0.1645025
C -0.3658571 -0.53481126 0.14643683
O -0.22338904 -1.1763594 1.242512
C 1.2282233 0.18726309 -0.04750374
O 0.6125906 1.3892453 0.3136583
H -1.188031 1.3216249 -0.78195554
H -1.3458413 1.2893102 1.0316114
H 1.9819719 -0.14582151 0.6698724
H -0.6924942 -2.2108026 -0.7180965
H 1.5334159 0.113923 -1.0925274
