11

C -1.3824593 0.09535688 1.5672587
C 0.2722498 0.012126853 -0.034876652
C 0.65724397 -0.09702203 -1.1617438
C 1.0991361 -0.23369502 -2.5506418
O -0.039353646 0.1415498 1.242396
N -1.3985288 0.25337875 2.8845608
H 0.26615423 -0.035981826 -3.231425
H 1.9015733 0.47767347 -2.7713554
H -2.2888947 0.26000053 3.35422
H 1.4695215 -1.2460752 -2.7430532
H -0.5566428 0.37268776 3.44466
