11

C -0.5754179 1.615541 -0.2639098
C -0.100308016 -0.9943348 0.42161608
C 0.473565 -2.2022295 1.0052047
C -0.543195 0.07409246 0.032221843
O -1.4735354 0.823762 -0.8579015
N -0.022330524 2.525255 -1.0670227
H -0.30538225 -2.8541892 1.4185104
H 1.0125065 -2.7748127 0.24355343
H -0.32508823 2.6126263 -2.0336041
H 0.68284297 3.149691 -0.7138014
H 1.1763431 -1.9754015 1.8151331
