10

O 0.16478595 -2.16292882 -0.95682433
C -0.45281122 0.62419254 0.98214361
N -0.57559401 -0.80294526 0.75158450
C 0.02960848 -0.98080528 -0.35577405
C 0.31880340 1.11427832 -0.20921372
N 0.60451341 0.15152786 -1.00524031
H -1.43894347 1.09863569 1.05290410
H 0.07327909 0.82440619 1.92244837
H 0.66073862 -2.00627902 -1.77312626
H 0.61562015 2.13991771 -0.40890197
