10

O 1.70248 -1.5111291 0.6625548
C 0.7184587 -0.6611688 0.36892235
N -0.124920234 -0.21839464 1.2155688
C -0.97346216 0.6551887 0.42703587
C -0.39707136 0.5609959 -0.9563682
N 0.61342365 -0.22654821 -0.98554176
H -0.75822544 1.0747281 -1.8426857
H 2.183632 -1.6767836 -0.16079713
H -0.9462133 1.6801466 0.8140092
H -2.0181017 0.32296532 0.45730156
