9

N 0.06103688 -1.21372348 0.34858380
C -1.33588669 -1.03608916 0.10693230
O -1.79732131 -1.37380357 -1.13712843
C 1.53625319 0.82444652 0.13111299
O -1.78530074 0.03375735 -0.63313741
C 0.81500685 -0.23480369 0.23209776
N 2.41558323 1.69725286 0.06659320
H -1.94105073 -1.33132113 0.96458960
H 2.03167913 2.63428429 -0.07964389
