9

N 1.821357 1.5715098 -0.47478023
C -1.0182588 -0.9734837 0.16513747
O -0.82653797 0.00441506 -0.7634445
C 0.56910414 0.15432715 1.1567025
O -2.2811975 -0.71737045 -0.060631696
C 1.0114696 0.7960406 0.025338195
N -0.33974746 -0.5927333 1.4909887
H 1.7017614 1.734318 -1.4736508
H -0.63795054 -1.9770231 -0.065659724
