9

N 1.1663643 -0.7177764 -0.8670863
C 1.3759333 0.25062272 1.3069373
O 0.3288041 -0.17350352 1.7093513
C -1.3118514 -0.2631063 -1.0833961
O 1.8891606 0.09850288 0.06543861
C -0.053951286 -0.4669601 -0.9450643
N -2.5273232 -0.17157036 -1.2911265
H 2.098518 0.8447559 1.8865523
H -2.9656541 0.59903514 -0.7816064
