9

N -0.6951788 -1.7304848 0.71933794
C -0.039222896 -0.75860417 0.2673105
O -0.4568085 -0.0063248873 -0.81452304
C -0.30992633 1.3514379 -0.7849715
O 0.06265227 1.9760585 0.16055545
C 1.2839361 -0.46676952 0.79020756
N 2.352075 -0.28917605 1.191864
H -1.5865537 -1.8245685 0.23271593
H -0.61097306 1.7484316 -1.7624967
