11

C 1.39895 0.21923341 -0.33892182
C -0.8909908 -0.988051 0.015039635
C -0.992448 2.1823604 1.372131
O 0.4493887 0.6094082 -1.3257644
C -0.03858771 0.25238803 -0.058092054
N -0.52984804 1.3274126 0.7119727
H -0.9712505 -1.3314321 1.0502571
H 2.0296345 1.0241436 0.035389483
H -1.89462 -0.7764032 -0.3622282
H 1.8823516 -0.7423856 -0.50578624
H -0.4425801 -1.7766744 -0.59399724
