11

C 0.041496836 -0.290774 -0.10612453
C 1.2999713 -1.3783375 -0.6356054
C 0.31889462 1.0321531 -0.7647651
O -1.1709527 -0.9210657 -0.31993532
C -0.90727186 -0.4597523 1.0020473
N 1.4875313 -1.2151273 0.5368523
H 0.49617416 0.88969725 -1.8326355
H -0.53846925 1.6970198 -0.62413406
H -0.7303021 -1.2341933 1.7429124
H -1.5027245 0.39700302 1.3156942
H 1.2056521 1.4833769 -0.3143064
