10

N 1.4068667 0.3662306 -1.1602683
C 0.5299013 0.22949538 -0.14400668
C 0.46114966 0.92775035 1.0340722
O -1.9397767 -0.088288054 1.2878648
C -1.465269 -0.8681127 0.48596588
N -0.21460153 -0.88152933 -0.05544813
H -2.06064 -1.7218927 0.11872183
H 1.5266825 -0.44766885 -1.743195
H -0.44640446 1.5142255 1.2021825
H 2.2020915 0.96978974 -1.0258893
