10

N -0.029381135 -0.4688585 1.4465424
C 1.5657291 -0.3845484 -0.56595
C 0.7342076 0.36810926 0.41490945
O 1.2336836 -1.4438318 -1.0416818
C -0.6725468 0.05519778 0.5025961
N -1.8940704 0.26926583 -0.012739845
H -1.9401022 0.4715393 -0.99941343
H 2.5261474 0.09939275 -0.84179336
H 1.1209012 1.3313451 0.7454304
H -2.6445682 -0.2976111 0.3521001
