10

N -0.27798493 -1.49464783 -0.04391751
C 0.81219022 -0.42505556 0.07993662
C -0.57642110 -0.38903655 0.47366457
O 0.42386116 0.56085550 -2.04878240
C 1.20811772 0.26781202 -1.17830929
N -1.53980364 0.31388471 1.09116921
H -2.47667387 -0.05586631 1.03404708
H 1.60207697 -0.60349494 0.80852267
H -1.46403979 1.31845417 1.05044712
H 2.28867729 0.50709468 -1.26677814
