11

C -0.50495459 -0.40808346 0.72476573
N -0.23479725 -0.05972828 -0.60868567
C -0.96978139 -0.38641598 -1.65987145
C 0.49959691 0.13591907 1.47008979
N 0.88658618 0.66433157 -0.68553167
N 1.30295395 0.76048111 0.60212960
H 0.67948807 0.11268819 2.53340877
H -1.81325533 -1.03968955 -1.51625833
H -1.36633835 -0.99565892 0.99019496
H -0.61918653 -0.06911558 -2.62797110
H 2.13968837 1.28527165 0.77772981
