9

O -1.251113 0.033406053 -1.6175399
C -0.5099116 -0.13253263 -0.51389384
N -0.6771261 -1.1476235 0.28874415
O 0.254752 -0.9773496 1.2961543
C 0.9487272 0.14214735 1.0568371
C 0.52805704 0.74466664 -0.0783063
H -1.881742 -0.6988846 -1.667966
H 1.7132283 0.38364008 1.7809016
H 0.8751282 1.6525301 -0.5449312
