9

O -0.76162577 0.7530589 1.0334117
C -0.10408892 1.3334745 -0.050461646
N -0.5120409 -0.5871821 0.95576847
O 0.7109246 -2.0104845 -0.38256046
C 0.7199372 0.41572934 -0.76848376
C 0.28292745 -0.7838816 -0.05636765
H -0.69112337 1.1123515 -1.0249231
H 0.021276653 2.4083493 0.045865737
H 0.33381295 -2.6414149 0.2477506
