9

O 1.8508111 -1.0894657 0.60095435
C -1.2583867 0.4308474 0.0518637
N 0.7655103 0.31173825 -0.87608767
O -0.42333782 0.8743069 -1.0612453
C 0.74680626 -0.42093205 0.21970488
C -0.49344614 -0.44462392 0.9331129
H -1.6085647 1.3342166 0.562773
H -2.1269145 -0.07659688 -0.38421333
H 2.547522 -0.91949064 -0.046862695
