12

N -0.2900774 -0.8375147 1.7695152
C 0.09957948 0.29017264 1.0859007
O 0.85082674 1.130418 1.5316719
N -0.4940887 0.3719789 -0.18472981
C 0.26874056 0.9368785 -1.2725463
C -0.068963096 -0.511747 -1.2588205
H -1.1434009 -1.2896905 1.4794081
H -0.10482924 -0.8172739 2.7603118
H -0.27807736 1.6159612 -1.9216611
H 1.2948855 1.2181123 -1.0549173
H -0.86782354 -0.89443254 -1.8899459
H 0.7332278 -1.2128627 -1.0441868
