10

O -1.1013376 0.87842137 1.6137099
C -0.3702911 0.38388947 0.61473453
N -0.84445995 -0.8132283 0.019264981
C 0.99822223 -0.15924667 -0.9405907
C -0.062374126 -1.2439977 -0.97003466
N 0.6991488 0.8253959 0.10713088
H -1.6882503 -1.2744197 0.32921943
H 1.9816586 -0.6117603 -0.7710603
H -0.66308975 1.6863858 1.9192548
H 1.0507731 0.3285601 -1.9216288
