10

O 0.064363346 -1.4504668 1.6640329
C 0.039951812 -0.47693875 0.7386525
N 0.13907613 0.80218124 0.9511873
C 0.05691387 1.3643992 -0.31180215
C -0.09140754 0.4060305 -1.2651612
N -0.101102 -0.7998974 -0.5668395
H 0.162761 -0.9944152 2.5124478
H 0.111066744 2.4362962 -0.4472413
H -0.18697195 0.4441261 -2.3388574
H -0.19465138 -1.7313153 -0.9364191
