10

O 2.05725 0.24930759 -0.56550413
C -0.97585714 -0.6075228 1.0044413
N 0.38085657 -0.73575115 0.7195727
C -1.294984 0.39568713 0.026437163
C 0.77352285 0.17492457 -0.21851818
N -0.19800738 0.88670903 -0.6922227
H 2.1287591 0.95386356 -1.225911
H 1.0022122 -1.3943125 1.1603439
H -1.6195604 -0.8184607 -0.16488929
H -2.2541919 0.89555496 -0.04374958
