10

O 0.33722740 0.81564111 1.95182873
C 0.15141514 0.36743819 0.71024486
N 0.38312369 0.93835307 -0.39277755
C -0.02993788 -0.06859789 -1.37873714
C -0.54173391 -1.31619262 -0.68304427
N -0.38464948 -0.94009534 0.58573846
H -0.61487061 -1.50920003 1.38815326
H 0.70333975 1.70982646 1.88386055
H -0.81326108 0.33371639 -2.03272550
H 0.80934702 -0.33088955 -2.03254153
