11

C 0.68533794 0.56144534 -1.70918872
C -0.40025866 0.66504519 0.34989353
O 0.26899198 -0.08536458 -0.49217731
C -0.71615142 -0.20475837 1.53232542
O -0.27908142 -1.54207289 1.54350363
H 0.36190437 1.60441612 -1.68139138
H -1.81284255 -0.15894477 1.64010987
H 0.22602016 0.02327515 -2.54088556
H -0.31034047 0.34133766 2.40139812
H 1.77306514 0.48114496 -1.76483570
H 0.20335485 -1.68552373 0.72124821
