11

C -0.044519998 0.7832578 0.3308213
C 1.237663 0.055689935 -1.4735413
O 0.2815574 -0.22979037 -0.43566516
C -1.0314418 0.25549436 1.3317922
O -1.3990195 -1.1019982 1.2909776
H 1.5304347 1.1056578 -1.4026736
H -1.9221462 0.897216 1.2255527
H -0.90222293 -1.504706 0.56955785
H 2.0909693 -0.60879093 -1.3217891
H 0.7583232 -0.161184 -2.4303687
H -0.59959763 0.50915354 2.315336
