11

C 1.4310807 -1.1764734 0.31493494
N 0.34243253 -0.26592544 -0.0150040435
C -0.49808532 0.18855427 0.88396055
C -1.5174401 1.0787767 0.41756475
N -1.3395405 1.4909176 -1.9794145
N -1.522974 1.3832074 -0.8669526
H 0.30181748 -0.02702331 -1.0098777
H 2.3933635 -0.7312111 0.04894266
H 1.3094727 -2.1252363 -0.21533015
H 1.3868376 -1.3481104 1.3896655
H -2.2869644 1.5325235 1.0315108
