12

N -0.45490795 -0.4538263 1.9145254
C -0.13946678 -0.13647945 0.59787136
C -0.92648107 0.7227355 -0.17490296
N -0.5969474 1.0857807 -1.4111358
C 0.5391749 0.58137923 -1.8926256
N 1.3651483 -0.2464642 -1.2578245
C 1.0217288 -0.6003217 -0.022700058
H -1.4312738 -0.38405058 2.1570127
H -0.035874978 -1.3020781 2.2656808
H -1.8530636 1.13309 0.2242967
H 0.81573665 0.8773599 -2.900516
H 1.6962271 -1.277125 0.5003183
