12

N 1.0386317 0.76916176 0.16023105
C 1.7313584 0.27136067 -0.79820454
C -0.07727193 -0.81713855 -1.0947347
N -0.9213643 -0.23344256 1.2575903
C -0.25096735 0.14253114 -0.014833547
N 1.1098775 -0.7086921 -1.6060998
C -1.5351266 0.8402721 0.35910895
H -0.37020174 -0.003083035 2.0780168
H -1.2566586 1.7851818 0.8553476
H -1.3769884 -1.1358551 1.2943605
H -0.8450784 -1.4775921 -1.4855753
H 2.7537901 0.5672961 -1.0052068
