12

N -0.7513427 -0.85778916 1.2725475
C 1.0679988 -0.32396448 -0.27768582
C -1.3986422 -0.5190989 -0.98179996
N -0.50110686 1.3176126 0.19443336
C -0.38905165 -0.14008133 0.06572538
N 1.6817482 0.7954372 -0.41046068
C 0.66974396 1.7487347 -0.089617416
H -0.25630298 -1.7315131 1.368772
H 1.5531209 -1.2807854 -0.45627668
H 0.9293813 2.8022444 -0.08440758
H -1.7541479 -1.0065024 1.3018129
H -0.85139877 -0.8042944 -1.9030432
