9

N 0.18186694 -0.5648697 -1.689481
C -0.21439391 0.8132978 1.5387433
N -0.014293894 -0.054423634 0.47043958
C -0.014752251 0.4167936 -0.809729
O -0.22233236 0.45506278 2.6890635
H 0.31849948 -1.5494862 -1.4647907
H 0.20090787 -0.33228463 -2.6686947
H 0.12510426 -1.0307535 0.7447145
H -0.3606061 1.8466635 1.1897343
