9

N -0.80750936 1.8455346 -0.12592955
C -0.10969646 0.81101006 -0.35049745
N -0.23628499 -0.30947426 0.45623854
C 0.48162737 -1.470934 0.29797176
O 0.36305094 -2.4396088 1.0068978
H -0.59954005 2.5740888 -0.79926425
H 0.6264362 0.6794524 -1.1494764
H -0.90322244 -0.26348308 1.2179706
H 1.1851387 -1.4265854 -0.5539107
