9

N 0.86449122 0.67558590 -1.41518122
C -0.02657740 0.80136426 -0.43209320
N -0.10089462 -0.33378695 0.32075882
C -0.98263656 -0.40898663 1.39366585
O -1.09014762 -1.38335014 2.09415785
H -1.55244363 0.52570149 1.50639554
H 1.00368805 1.45518688 -2.03660248
H 0.45234696 -1.18237296 0.17343562
H 1.43217351 -0.14934153 -1.60453642
