11

O 0.10928404 -0.9378215 1.3871541
C 0.69973534 1.138335 -0.43138298
C -0.7348395 0.07642862 -0.7576172
C -0.54281 -1.1325173 0.14885877
O -0.6159613 1.2440982 0.055446036
H -1.5809826 -1.4786075 0.29141504
H -0.24980085 -0.11589252 1.7442434
H 1.4041659 0.713192 0.28108764
H -0.01717499 -1.9261614 -0.39166987
H 0.5194624 0.3847829 -1.3575042
H 1.0089215 2.0341635 -0.9700308
