11

O -1.1217145 1.251208 -0.48590386
C -0.61413497 0.7312375 0.71729326
C 0.46338847 -0.29889622 0.45479128
C 0.4272893 -1.1342683 -0.74015135
O 1.282457 0.009439668 -0.6697349
H -0.34889913 1.4253011 -1.0430092
H -0.19616915 1.5255826 1.3564901
H -1.4474218 0.26960993 1.2579703
H 1.0138501 -0.6528051 1.3270164
H -0.4081795 -1.0358957 -1.4288915
H 0.9495343 -2.0905135 -0.7458705
