11

O -0.13616726 0.35410264 -0.42298601
C -0.61442517 1.66512518 -0.75383291
C 0.04564602 0.09705445 0.84835948
C 0.51765548 -1.32716510 0.93790930
O 0.67110385 -2.08835737 -0.23162939
H -1.56006521 1.54830929 -1.28797632
H -0.74635671 2.23308274 0.16971588
H -0.19193561 -1.81355300 1.62962644
H 1.47236630 -1.27360998 1.48876523
H 0.12682448 2.13499212 -1.40435192
H 0.41535394 -1.52998099 -0.97359973
