10

O 1.1222984 0.50434625 0.9781504
C 0.7158283 0.38071498 -0.42286396
O 0.023831474 -0.92944086 2.3988168
C -0.43460327 -0.53711426 -0.038876142
C -0.4390833 1.1702665 -0.7802482
C 0.1856895 -0.4066006 1.3433918
H -0.7108947 -1.4527334 -0.54780036
H -0.67971027 0.90058917 -1.8243866
H -1.3005265 0.31431374 -0.02517074
H 1.5171704 0.055658426 -1.081013
