13

C -0.89838921 -0.45895148 0.62634311
C 0.30327111 0.22249883 -0.00016326
N 1.06246696 -0.34546916 -0.84931536
O -1.83977821 -0.90052563 -0.31912038
C 0.63486858 1.63462722 0.37124916
O 0.65192806 -1.66870715 -1.09459113
H 0.79061323 1.71962595 1.45292392
H -1.41584913 0.26171295 1.26941616
H -0.54514022 -1.28166549 1.26706494
H 1.53673663 1.96692639 -0.14572367
H -0.19617838 2.29789219 0.10933982
H -1.35790146 -1.49277440 -0.91391616
H 1.27335230 -1.95519026 -1.77350718
