13

C -0.4239056 -1.6494956 -0.3346972
C 0.90978926 0.6099653 -0.60005236
N -1.0482635 0.3968416 0.74335235
O -0.8858237 1.7498053 1.0734003
C -0.23338823 -0.2027065 -0.02869681
O 1.6670234 1.2229749 0.41389218
H 1.573682 -0.052730035 -1.1629798
H -1.3237109 -2.0419886 0.1443046
H -0.49912155 -1.8031743 -1.4184902
H 1.0298944 1.7603636 0.9109822
H 0.44394484 -2.2188766 0.016896231
H -1.6910169 0.88319457 1.5420938
H 0.48089662 1.3458258 -1.3000052
