9

N 0.12933326 -0.31143567 -0.33522984
C 0.91816604 0.49450752 -1.0037817
N -1.3242875 -0.941978 1.3422098
C -0.6163071 -0.03805402 0.8087363
O 1.4184693 -0.15431118 -1.9776767
H -1.796894 -0.5686362 2.1631582
H 0.6600177 -1.016215 -1.3697865
H 1.137215 1.5438151 -0.80356157
H -0.5257129 0.9923072 1.1759316
