9

N 1.2658633 -0.15619977 -1.5651706
C 0.21973321 -0.024632918 -0.86276555
N 0.2932295 -0.039321754 0.5211881
C -0.7843121 0.09331623 1.3659236
O -0.70731175 0.07841909 2.5697913
H 1.0445405 -0.12275853 -2.5540605
H -0.8027813 0.108145915 -1.2328899
H 1.21015 -0.15330446 0.9371326
H -1.7391111 0.21633619 0.8208507
