9

N -0.4403831 -0.08364926 -0.3535503
C -0.3696311 1.1403041 -0.03610398
N 0.49141568 -2.1808083 -0.09062618
C 0.5237953 -0.94582593 0.19238308
O -1.2397535 2.0396001 -0.49638137
H 1.2498422 -2.66347 0.38416258
H 1.2761757 -0.48399776 0.8545862
H 0.36592522 1.6164757 0.6191685
H -1.8573864 1.5613712 -1.0736384
