11

O 1.2004613 0.6342521 -1.9629649
C 0.16348542 0.6835043 -1.3554459
C 0.039317466 0.16039214 0.05169678
C 0.86646646 -1.004942 0.4373718
O 1.1986216 0.28815296 0.86853063
C -1.2522279 0.36700708 0.77724206
O -2.2879107 0.6020782 0.20712957
H -0.7684496 1.1012129 -1.7835344
H 0.49945882 -1.6835486 1.2095069
H 1.5155388 -1.4237889 -0.32892776
H -1.1747615 0.2756798 1.8793952
