11

O 0.42902213 -0.99777925 -2.2069273
C 0.0425254 -0.045252156 -1.5663387
C -0.23505405 1.1670619 0.6551897
C 0.07159844 -0.08288555 -0.094617665
O -1.1413664 1.740378 -0.03758465
C 0.32124367 -1.3001195 0.67118317
O -0.038786557 -1.4120294 1.8265094
H -0.2862739 0.9057045 -2.0127144
H -0.6530322 0.3947466 1.4543215
H 0.5840086 1.7102084 1.1600081
H 0.9061148 -2.0800335 0.15097149
