11

O 2.5031006 0.36487383 -0.42977995
C -1.1501172 0.6085335 -0.4331802
C 0.29032737 -0.9499775 0.7523193
C 0.17118905 0.11721201 -0.10524042
O -0.7110204 -1.581241 1.3099892
C 1.3759116 0.73369503 -0.6627741
O -2.188056 0.12817398 0.01611002
H 1.1865777 1.597528 -1.3418673
H -1.5475914 -1.1485234 0.9988205
H 1.2714698 -1.3409911 1.0199282
H -1.2017909 1.4707171 -1.1243252
