11

C 1.10810017 0.55414594 -0.16366859
N 1.22222392 -1.35582221 0.62737612
C -0.19061332 0.03033851 -0.01412084
N -0.08110429 -1.19199942 0.49706098
C -1.51531977 0.63703940 -0.34962979
N 1.98748694 -0.35040188 0.25303230
H -1.63000614 0.75799271 -1.43310950
H 1.43182737 1.51361172 -0.54138154
H -1.62932999 1.62311680 0.11177623
H 1.61361207 -2.20720352 1.00162156
H -2.31687677 -0.01081789 0.01104320
