10

N 2.7638552 -0.9746171 -0.95417744
C 0.15311761 -1.0783947 -0.72255176
O -0.29702273 -0.30442008 0.37041432
C 1.6167506 -1.009015 -0.841512
C -0.63349974 0.96038693 0.01845502
N -0.96618325 1.5724311 1.1495435
H -0.2949966 -0.7115875 -1.6502572
H -0.14366588 -2.1137624 -0.5410081
H -1.2598557 2.5332267 1.1072923
H -0.93849915 1.1257522 2.0638013
