10

N 0.07629265 1.29821341 1.74250432
C -0.33788452 0.96675077 0.52462611
O -0.11901433 -0.36602793 0.41226209
C -0.44629716 -0.87153478 -0.86585632
C 0.73447057 -0.87605098 -1.74161529
N 1.64615676 -0.89402873 -2.44746994
H -0.80149994 -1.89632670 -0.73679311
H -1.22424764 -0.25443794 -1.32408747
H -0.00729798 2.25702092 2.03380762
H 0.47932176 0.63642191 2.40262197
