11

C -0.11754706 0.28680053 0.918683
C 0.17973839 0.5960653 -0.44848946
N 1.0418081 0.77677256 0.80018485
C 0.6024482 -0.44446933 -1.4588387
N -0.96101904 -0.24627335 1.8224515
H -0.7336865 -0.114223324 2.7984996
H 1.3980355 -0.050905436 -2.1005516
H -0.23342194 -0.740093 -2.1021028
H 0.98102814 -1.3387793 -0.95398605
H -0.21692649 1.5205637 -0.8681171
H -1.9404572 -0.2454585 1.5922672
