11

O 1.2602419 -1.9286599 1.1725478
C 0.026172388 0.8868461 -0.69502324
C 0.81175476 -0.9817361 0.55699277
C 1.1712706 0.016987493 -0.30945286
C -1.1289479 0.31512374 0.046787605
N -0.7349335 -0.6910168 0.7300937
H -2.1548178 0.66958296 0.033352535
H -0.22929284 0.88561636 -1.7666781
H 2.1768684 0.1470438 -0.67830485
H 0.12106084 1.9474698 -0.41314596
H -1.3193766 -1.2672576 1.3228306
