11

O -0.70109874 2.2785876 -0.8196501
C 0.50569916 0.78688043 0.69872874
C -0.2942331 1.1998793 -0.4028068
C 0.58674836 -0.71781594 0.6882285
C -0.09048773 -1.1369122 -0.47090638
N -0.6047526 -0.04484882 -1.0528158
H -0.24238342 -0.31092346 1.4143046
H -1.2147057 -0.042151537 -1.8584702
H 0.9398788 1.4183735 1.457473
H 1.333083 -1.2985706 1.2180965
H -0.21774806 -2.132498 -0.87218213
