9

O -1.59867787 -1.60443791 -0.87840006
C -0.98976632 -0.63654766 -0.53597144
N -0.76859807 0.67000626 -0.74194130
C -0.07657970 0.03542141 0.42652062
C 1.42164516 -0.00166814 0.33531719
O 2.04615653 0.41730865 -0.60226889
H -1.47352950 1.38960549 -0.65809187
H -0.47562383 0.17936641 1.43118175
H 1.91497364 -0.44905452 1.22365394
