9

O 1.9862537 0.18006164 -1.211774
C -0.81425095 0.3320775 -0.11884657
N -0.23349799 -0.7444473 -0.940123
C -0.18606985 0.4165761 1.1273686
C 0.96014297 -0.25600576 -0.9093918
O 0.8527506 -0.24259123 1.360917
H -1.6091567 0.92371273 -0.5474808
H -0.60752803 1.1045289 1.8763502
H -0.34864396 -1.7139126 -0.63701946
