14

C -2.3933492 -0.07751452 0.9735749
N -1.3519908 0.13556045 -0.014039204
C -0.03310913 0.035023052 0.34516597
O 0.35367447 -0.07873168 1.4929409
N 0.8419456 0.103958465 -0.73614824
C 2.2143283 0.0074276812 -0.5925979
N 2.962848 0.11103723 -1.6154851
H -2.0339727 0.2943987 1.9335771
H -2.6501303 -1.138471 1.0847251
H -3.2871907 0.4792049 0.6827467
H -1.5942283 -0.023065355 -0.9798296
H 0.51731706 0.3064241 -1.6720529
H 2.5181541 -0.16394235 0.44055808
H 3.9357035 0.008690381 -1.3431362
