11

O 1.08694795 1.82348271 -0.70400214
C 0.55212420 0.73462695 -0.63223520
C -0.62695664 0.51095025 0.28569101
N 0.94375170 -0.37928006 -1.30076904
C -0.55899880 -0.47774198 1.36547693
O -1.30392657 -0.73348486 0.18125651
H 1.66164418 -0.28217060 -2.00253277
H 0.34440596 -1.07535367 1.47329329
H -1.15389333 -0.33409610 2.26595252
H -1.26539497 1.38408475 0.40437689
H 0.32029639 -1.17101748 -1.33650813
