9

N -1.5491554 0.56736356 0.4376196
C 0.36372212 -0.55747116 -0.6819466
C -0.2837952 0.26900396 0.30738425
N 2.7708635 -0.8143514 -0.49984428
N 1.6583872 -0.69593483 -0.58375555
O 0.3514296 0.8610108 1.2576944
H -2.2973096 0.26264146 -0.16909078
H -0.8880942 1.1789912 1.4285798
H -0.12604794 -1.0712535 -1.4966409
