9

N -0.88859797 -0.5766377 -1.2255472
C 0.23309542 -0.14656574 -0.55363923
C -0.050721943 0.37226892 0.7882937
N 0.9587664 0.80621576 1.4876535
N 1.8384244 1.1760892 2.0880249
O 1.346007 -0.15866974 -1.0444428
H -0.70396394 -1.0898472 -2.075938
H -1.7056481 -0.85097915 -0.70535684
H -1.0273613 0.46812558 1.2409524
