10

N 1.9602343 -0.2366743 -0.46734634
C 0.6023308 -0.27765048 -0.31873128
N -0.15908706 -1.1259046 -0.96672046
O -1.4431804 -0.8408547 -0.43055847
C -1.2542552 0.13173482 0.4329933
O -2.3307078 0.5686734 1.0594234
N -0.032592922 0.5509253 0.57205474
H -2.0338712 1.2604088 1.668269
H 2.3164985 -0.6870907 -1.2944971
H 2.3746307 0.6564325 -0.25488675
