10

N 1.1288114 0.51385415 0.83314145
C -0.12911609 0.39370596 0.47134143
N -1.1491021 1.0259482 1.110304
O 1.8495398 -0.24313232 -0.15277837
C 0.93367463 -0.72721475 -0.9630994
O 0.97340846 -1.4454627 -2.0017877
N -0.30504605 -0.39100257 -0.6434407
H -2.0427582 0.5600535 1.0797406
H -0.35361114 -1.1160516 -1.7338301
H -0.90580076 1.4293021 2.0004086
