11

C 1.405231 0.5809662 0.48217693
C -1.7270509 -1.4277235 -0.082733884
N 0.26300132 -0.04726927 0.5393074
C 1.5008172 1.7282021 -0.39054105
C -0.85207915 -0.44807655 0.5896111
O 0.5907572 2.160848 -1.0736873
H -2.2609725 -2.0277755 0.65912956
H 2.2236018 0.21258238 1.0884422
H -2.4727252 -0.8590333 -0.64790726
H 2.5038078 2.2048182 -0.39605054
H -1.1743888 -2.077539 -0.76774716
