11

C -0.66067859 -0.56728551 0.71843132
C 0.88819780 1.30736513 0.21585090
N 0.15130646 0.27281171 0.51471996
C 0.62924837 1.98061792 -1.03578781
C -0.87213557 -2.00851486 0.48289914
O -0.23327723 1.66034322 -1.83300434
H -1.21482683 -2.49414662 1.40062488
H 1.65621518 1.60931447 0.91725727
H 0.02712329 -2.50456852 0.10580095
H 1.30105382 2.84374701 -1.22780086
H -1.67222659 -2.09968410 -0.25899181
