11

C 0.5104353 -0.96427184 1.5004699
C 0.16544676 -0.12550652 0.3195472
N 0.6342773 1.0347431 -0.00693184
C -0.032783665 1.3614727 -1.1798445
C -0.8782202 0.3612157 -1.4990588
O -0.761694 -0.60488874 -0.54335195
H -0.3858697 -1.2015873 2.0835567
H 1.2123213 -0.41821688 2.1293666
H 0.96802837 -1.9100254 1.1932036
H 0.14834055 2.2898083 -1.7014213
H -1.5802819 0.17725675 -2.295536
