9

N -2.1958036 0.31207386 -1.4325017
C -1.2763084 0.45197797 -0.74862206
C -0.10158909 0.6219404 0.08711485
C 0.46853298 -0.57882285 0.75469804
N 1.1752015 0.056203976 -0.34362936
H -0.031699687 1.5917565 0.57072836
H 0.92581105 -0.4580718 1.7333915
H -0.02902737 -1.5287495 0.5859146
H 1.0648825 -0.46830845 -1.2070944
