9

N -0.15421227 2.4202394 -0.90334034
C 0.8451065 -0.5882507 0.7530527
C 0.31150627 -0.130306 -0.5575647
C 0.042070497 1.289536 -0.7598473
N -0.7928951 -0.8356339 0.101597264
H 0.64986306 -0.6188896 -1.4706023
H -0.18489246 -1.5484105 0.7342444
H -1.4032954 -0.20565198 0.6168896
H 0.6867488 0.21736726 1.4855704
