15

N -1.5252104 -0.07135391 1.1931832
C -0.8055342 -0.4448908 0.0021651683
O -1.6134195 -1.3566655 -0.6510255
N 0.51332 -0.9716208 0.31236383
C 0.70485336 1.1932895 -0.5610866
C 1.522759 -0.058648914 -0.22663893
O -0.57073957 0.65452844 -0.87600595
H -2.52281 -0.08671837 1.0100117
H 0.5979646 -1.1371984 1.3072773
H -1.2658745 0.864081 1.4876378
H -1.0471293 -1.8781669 -1.2306839
H 2.3256347 0.14078027 0.49235806
H 1.9714458 -0.47550356 -1.1363256
H 0.6430874 1.8752085 0.30188715
H 1.071653 1.7528793 -1.4251179
