15

N -0.61630426 -0.39432462 1.79435823
C -0.48563928 -0.67860109 0.38790840
O -1.12541550 -1.88797588 0.19101046
N 0.90606755 -0.69509948 -0.03152456
C 1.12882418 0.41052023 -0.96479477
C -0.13083531 1.26474973 -0.78668072
O -1.11285234 0.29938822 -0.43984543
H -1.49751004 -0.76101433 2.13788095
H -0.76872566 -2.27304731 -0.61716311
H 1.51459540 -0.67960217 0.77710833
H 1.19444333 0.03749122 -1.99395023
H 2.04878667 0.96224752 -0.73984128
H -0.00351819 2.00517607 0.01899380
H -0.45442098 1.78363483 -1.69237569
H -0.59749572 0.60645724 1.95891525
