15

N -0.4739762 -2.2381015 1.2970917
C -0.31889927 -0.9250474 0.9010465
O -0.80230534 -0.0008240743 1.546696
N 0.41784057 -0.760899 -0.2413336
C 0.93352354 0.5403149 -0.6733122
C -0.13652086 1.5817924 -1.0157385
O -0.6090737 2.3021276 0.0874555
H -1.1854116 -2.3412602 2.0069752
H -0.477914 -2.954095 0.5873854
H 0.973242 -1.5566484 -0.52079284
H 1.5301678 0.33815613 -1.56921
H 1.5987312 0.9706894 0.08691418
H -0.94358987 1.0812318 -1.5752586
H 0.31736958 2.3186874 -1.6883894
H -0.823184 1.6438761 0.7704703
