13

N -0.50391057 -0.91669658 -1.39038800
C 0.62627747 -0.18488317 -0.79555746
C 0.06309096 0.75938884 0.23237690
N -0.81920327 -0.08311100 1.13874032
C 0.91163108 1.55272908 1.02046305
N 1.57329563 2.24481793 1.69214286
H -1.05239646 -0.26473609 -1.94227009
H -0.18893951 -1.66121361 -2.00112119
H 1.22881174 0.39383477 -1.50703604
H 1.29813143 -0.96039995 -0.37759104
H -1.24245255 -0.75900114 0.48160789
H -1.55070207 0.48090445 1.56475283
H -0.34363426 -0.60163330 1.88387957
