9

O 1.2629564 0.7148 0.8071732
C 0.972235 0.91634345 -0.5072684
C 0.43873417 -0.27519903 1.3262665
O -1.2105925 -1.5789071 0.017157443
C -0.41904882 -0.4975416 0.18178052
N -0.006025658 0.24304748 -0.967993
H -0.9038879 0.28294525 0.9708375
H -1.7141129 -1.4487698 -0.79721034
H 1.5797422 1.6432813 -1.0307431
