9

O 1.6098094 0.15689515 -0.6080686
C 0.42694348 -0.23110564 -0.0575102
N 0.11599 -1.3463013 0.4681765
N -1.7180833 0.71566117 0.31986946
N -2.7619553 0.58748096 0.7250844
C -0.517045 0.87057996 -0.14897552
H -0.28394857 1.8288935 -0.59124446
H 2.239033 -0.57405686 -0.5580649
H 0.8892564 -2.008047 0.45073342
