9

O 0.8115552 -1.6765723 -0.76755023
C 0.26793945 -0.5632607 -0.24863207
N -0.3075712 -0.51253974 0.94080657
N -0.68802184 0.75851756 1.0247353
N -0.40736446 1.526133 -0.005119369
C 0.21152829 0.706242 -0.849373
H 0.70017356 -2.3883653 -0.124891564
H -1.1658217 1.1120175 1.8380874
H 0.5775826 1.037828 -1.808063
