11

N -0.637922 -0.4329671 1.8912438
C -0.48246303 -0.15849932 0.54606056
C -1.4522535 -0.05435374 -0.4045312
N 1.35526 0.16271503 -1.096828
N 0.70162743 0.019759258 -2.1627228
C 0.6983672 0.4554655 0.06333062
H 0.037402276 0.006175166 2.502012
H -1.5910457 -0.3753625 2.218804
H -1.231767 -0.43807626 -1.410719
H 1.3734475 -0.34161937 -2.855191
H 1.229347 1.1567633 0.7085412
