10

N -0.7833305 0.13069096 0.41862714
C 0.03242972 0.56578624 -0.5778531
C 1.0438911 -1.0612258 0.3132666
N -0.31673893 1.6282529 -1.3767233
C -0.13105941 -0.9286701 1.0036081
C -0.5855207 2.5290904 -2.0833447
N 1.1373618 -0.11827923 -0.6770452
H -0.54982394 -1.4752223 1.8334832
H 1.8315084 -1.7838807 0.47086355
H -1.6787175 0.51345766 0.6751177
