10

N 0.61083823 -0.1744282 3.3020365
C 0.35534662 -0.028023893 2.184422
C 0.04329491 0.1366875 0.79747814
N -0.65564626 1.1218686 0.28545603
C -0.7048688 0.86281127 -1.0531847
C -0.025687475 -0.29220375 -1.3496206
N 0.45280913 -0.751547 -0.1541501
H -1.2285782 1.5223436 -1.7326813
H 0.15243112 -0.81276107 -2.2771516
H 1.0000607 -1.5847473 -0.002604538
