11

N -1.3124754 1.235935 0.6275796
C 0.8424766 0.7472536 -0.71017385
N -0.23780215 -1.8647503 -0.8891066
N 0.5558067 -1.7186464 0.04590129
C -0.1324907 0.7670396 0.15544724
C 0.8571022 -0.31374663 0.33875135
H 1.3057979 1.0926144 -1.6142312
H 1.5691981 -0.29816404 1.1677742
H -0.35446703 -2.8772488 -1.0132619
H -1.6027707 2.1382756 0.28232035
H -1.4903754 1.091438 1.6089996
