11

N 1.4732825 0.3693767 1.3612179
C 0.43768817 0.19967787 0.440009
N -0.27792495 1.2321783 0.02404626
N -1.2143486 0.6864686 -0.77889854
C -1.0986407 -0.65233624 -0.891243
C -0.028997604 -1.0206422 -0.10677835
H 2.2853587 -0.19720308 1.1585869
H 1.7330934 1.3427651 1.4438907
H -1.8897328 1.2909068 -1.2142051
H -1.7743169 -1.2349668 -1.5009879
H 0.35453862 -2.0162253 0.064362496
