11

C -0.94265634 -0.23856968 1.4846454
C -1.6329181 -0.9529141 0.4650317
N 0.267494 0.32997957 1.042672
C 1.320031 0.3270781 -1.2214589
C 0.27968022 0.018036826 -0.20477584
O -0.8147489 -0.66721535 -0.6261197
H 0.9082304 1.0039738 -1.9782588
H 2.174061 0.7986065 -0.73820794
H -1.1914486 -0.26802656 2.5403867
H -1.9989706 0.2399509 0.96126944
H 1.631246 -0.5909001 -1.7251838
