12

C 1.03850656 1.27864656 1.51815754
C 0.29384043 -0.05051995 -0.37677222
N 0.05912634 0.46066366 0.82172940
N -0.76473942 -0.79442503 -0.83277596
C -0.70188637 -1.41058075 -2.07491511
O -1.60094349 -2.07644431 -2.52855590
H 1.90704847 1.36665596 0.86869800
H 1.33316757 0.80655481 2.46108588
H -0.81500600 0.30737795 1.32027319
H 0.63095272 2.27284952 1.72462567
H -1.63993332 -0.94960985 -0.32648457
H 0.25986665 -1.21116871 -2.57506583
