12

C 1.0728565 0.1927119 0.7817999
C -0.31483364 0.5937244 0.35031834
N -1.0159715 1.5494753 0.8056947
N -0.90654373 -0.17266145 -0.66629964
C -0.39369455 -1.2477251 -1.3417267
O -0.9956487 -1.8419613 -2.2050507
H 1.4145186 0.8607318 1.5766051
H 1.7838566 0.25736842 -0.049130466
H 1.0886241 -0.83255446 1.1660165
H -0.5167064 2.049108 1.5360111
H -1.8429273 0.11941135 -0.92614114
H 0.62647015 -1.527629 -1.0280969
