11

C 1.2979851 0.63784444 0.5746676
C 0.10167291 -0.2912402 0.4129995
C -0.7462656 0.049540218 -0.7835487
O -0.5447252 0.9475966 -1.5574877
C -1.9283705 -0.83289385 -0.97916335
N -2.8428156 -1.5211385 -1.1178974
H 1.9489237 0.5974781 -0.30381584
H 1.8802344 0.3441158 1.451538
H 0.97678536 1.6752794 0.7024807
H -0.5539762 -0.26769033 1.2950063
H 0.41055146 -1.3388919 0.30522063
