10

O 1.8347865 -0.16094562 0.77578175
C 1.13469 -0.8090365 0.031860877
C -0.11694697 -0.26780114 -0.55977327
C -1.0598062 0.3863639 0.3953705
N -0.293973 1.1811886 -0.5390945
H 1.395316 -1.8502009 -0.24646917
H -0.50873226 -0.7837601 -1.4331341
H -2.1263103 0.32443994 0.19550204
H -0.7702919 0.3944841 1.4439499
H 0.51126814 1.5852675 -0.06399421
