9

O 0.49354319 -0.50041949 -1.73073925
C 0.14313166 0.80855276 1.20752919
C -0.10867245 -0.50249040 -0.48281924
O -1.12755236 1.10907685 0.64204987
C -1.33824603 0.39554640 -0.44511356
N 0.79196134 -0.07594687 0.60690711
H 1.23851142 -1.11382369 -1.69895522
H -0.48983352 -1.50197016 -0.18925957
H 0.39715665 1.38147454 2.09040047
