9

O 1.0059179 -0.9463291 -1.5007272
C 0.31008416 -0.34744775 -0.51964355
C -0.94074726 -0.6226695 -0.08013979
O -1.1973841 0.26725593 0.93974227
C -0.09115655 1.0055587 1.0376387
N 0.84476656 0.69400346 0.2003828
H 1.8650517 -0.5038408 -1.5430489
H -1.7179171 -1.3265138 -0.32594973
H -0.078615405 1.7799828 1.7917452
