10

N -0.56719744 1.164429 -1.286497
C -0.15223031 0.25024143 -0.32475194
C 0.68925303 -0.8111603 -0.39581552
O 0.68948495 -1.4121917 0.84500444
C -0.14980948 -0.6747355 1.5737484
N -0.6823221 0.32505855 0.9523473
H 0.14397983 1.4187192 -1.9567833
H -0.97622514 1.9825784 -0.85587335
H 1.3070855 -1.2663573 -1.1527969
H -0.302019 -0.9765815 2.601418
