10

O -0.0696794 0.2990152 2.0194094
C -0.77897763 0.45556784 -0.06764148
C -1.0360464 0.7813451 1.2127515
N 0.8651301 -0.36606586 1.2839253
O 0.73751974 -0.7110151 -2.2497523
C 1.2142195 -0.8673991 -1.027595
C 0.44475955 -0.27576578 0.04056299
H -1.8260885 1.329439 1.7084693
H 1.7866908 -1.3201671 -1.9555557
H -1.3375276 0.67504597 -0.96457446
