9

N 1.2649182 -0.15784034 -1.566361
C 0.21908133 -0.023290876 -0.8637345
N 0.29439574 -0.04013242 0.52291656
C -0.7830086 0.0934495 1.3655382
O -0.7077052 0.08267582 2.5695515
H 1.0418293 -0.12567103 -2.554957
H -0.80252576 0.11327818 -1.2347355
H 1.2104213 -0.1553498 0.94078535
H -1.7374063 0.21288097 0.82099617
