9

N 1.37839320 -0.18446890 -1.12594392
C 0.07611437 -0.00730028 -0.91264752
N -0.20412790 0.01975196 0.42546891
C -1.51029794 0.20364527 0.86464746
O -1.81370312 0.23113514 2.02957693
H 1.70815183 -0.21628895 -2.07654844
H -2.20662001 0.31723739 0.02024960
H 2.09363200 -0.26802246 -0.40461536
H 0.47845758 -0.09568916 1.17981212
