12

C -0.35020867 -1.1034374 0.98008746
C -0.26075053 -0.6287166 -0.46797767
N -0.26482883 0.8199208 -0.5851609
C 0.8763673 1.5491811 -0.49472243
O 1.9938809 1.0797213 -0.40758768
H -0.34320205 -2.1960711 1.0260963
H -1.2702883 -0.74675196 1.4557644
H 0.50564516 -0.7254616 1.5475211
H -1.0958885 -1.0185161 -1.0595123
H 0.66847456 -0.9807976 -0.92511946
H -1.142944 1.3116701 -0.54039544
H 0.683743 2.6392586 -0.5289933
