12

O -1.661749 0.33539814 -1.433113
C -0.40933752 -0.2877105 -1.2246015
C 0.31916788 -0.8702559 1.1250391
O 0.47787398 1.3344625 0.39483076
C 0.17294143 -0.00491756 0.12411319
O 0.8120586 -0.5436101 2.3404396
H -1.5999484 1.2242033 -1.0635991
H -0.5588814 -1.3631045 -1.349961
H 1.1107064 1.6489165 -0.26626977
H 1.0061699 0.40556306 2.316037
H 0.31131575 0.031305816 -2.000567
H 0.01968226 -1.9102509 1.037652
