12

N -0.53965616 0.5638701 -2.1940126
C -0.052237805 0.1937342 1.0364331
C 1.0128149 0.029291216 -0.06327037
O 1.3976984 -1.2896183 -0.27571452
C 0.049637757 0.44852883 -1.1592292
N -1.2607638 -0.11377966 0.2743839
H -0.0041277753 1.2205173 1.4282277
H -1.2680191 0.10917173 -1.297722
H -2.005745 0.5220547 0.57706344
H 1.9108262 0.6495602 -0.0210624
H 0.1602138 -0.5035302 1.8603237
H 0.59935874 -1.8298001 -0.16542064
