12

N 1.4206655 0.5228203 0.8276395
C 0.01769861 0.3120011 0.57633346
C -0.61314714 1.0806029 -0.5956104
O -1.1162083 -0.16578971 -1.1558716
C -0.4699925 -0.9058526 -0.19708212
N -0.3080946 -2.142889 -0.08412585
H 1.7347177 -0.07409264 1.5827338
H 0.10954123 1.5462804 -1.2703917
H 1.9676898 0.2725532 0.009300647
H -0.7733151 -2.6542313 -0.8345976
H -1.4294773 1.7679925 -0.36638737
H -0.54007757 0.44060487 1.508059
