10

C 0.7124161 -0.5491613 -0.60019755
C 0.9188257 0.69324374 -0.09856769
N -1.1652852 -1.2104113 0.9607693
N -1.0818582 0.0952688 0.76323104
C -0.237452 1.1116347 0.6371727
C -0.6716063 -0.9901938 -0.33397716
H -1.2987976 -1.3091538 -1.1699923
H 1.4103315 -1.1502817 -1.1684684
H -0.42247266 2.0401607 1.1566465
H 1.8358984 1.2688938 -0.14661618
