10

C -0.18371766 1.07006140 -0.37668226
C -0.38803295 -0.02572246 -1.23970196
N -0.09543146 -1.13549178 -0.51608434
N -0.66067961 -1.69823446 0.52819181
C 0.49179991 -0.81457482 0.76082678
C 0.23681350 0.62189543 0.85878620
H -0.40099435 2.09922689 -0.63945926
H -0.91882063 -0.08873885 -2.17632327
H 1.42745772 -1.26538991 1.08624685
H 0.49160540 1.23696854 1.71419925
