9

O 1.68472579 0.92797732 0.60114942
C 0.56574416 0.30731733 0.19518400
N 0.42855165 -0.24656285 -0.99852547
N -0.81122817 -0.72694847 -0.95555750
N -1.47964305 -0.52674560 0.15987919
C -0.62430159 0.13728981 0.92917983
H 2.32763794 0.88597863 -0.11982202
H -1.21411129 -1.21382436 -1.73923070
H -0.87737539 0.45551829 1.92774315
