9

O -1.7490461 0.36091223 1.3357927
C -0.42257676 -0.41489857 -0.4490258
N 1.674662 -0.118950725 -1.6891907
N 0.7384611 -0.34311777 -0.97946906
N 0.58499986 0.9215969 1.1898975
C -0.46508357 0.38523173 0.8130557
H -1.1500225 -1.0482618 -0.9551773
H -1.6875364 0.93426913 2.1139157
H 2.4761422 -0.6767812 -1.3797987
