11

O 0.43606881 -0.45108149 1.61336255
N -0.40766731 0.41332216 -1.51681020
C -0.06430227 0.07627455 -0.31719328
C 0.90415114 -0.87885637 0.32056707
O -1.28340008 1.27015124 -1.83842956
C -0.51137393 0.48492070 1.04675461
H -1.54607423 0.23915925 1.31445959
H 0.07799790 -0.06294077 -2.29263351
H 0.71915272 -1.94712749 0.15168116
H 1.97078057 -0.66292872 0.17864522
H -0.29533330 1.51910692 1.33959643
