11

O -1.2735445 -0.181483 1.933265
N -1.1670538 -0.76793 0.6729016
C -0.23952703 -0.22897714 0.00751108
C 0.2962975 -0.46618596 -1.3773574
O 1.2572124 0.58730674 -1.1734163
C 0.7903899 0.85877025 0.16322258
H -2.0049367 -0.6699539 2.3294497
H -0.39169407 -0.24672659 -2.2013674
H 0.7738993 -1.4375459 -1.5456964
H 1.5624666 0.6774874 0.91966397
H 0.39649042 1.8752381 0.27182364
