10

C -2.4624705 0.8633374 0.60521287
C 1.2491605 0.8239457 0.25919768
C -1.3220208 0.546388 0.38872692
C 0.01900904 0.15550217 0.12031559
N 2.1607037 -0.16259937 -0.17640679
N 1.5766338 -1.2943938 -0.58258325
N 0.30922958 -1.0972912 -0.3200896
H -0.33035022 -1.8744245 -0.4256866
H 2.2716656 0.88731956 -0.6687995
H -3.4715612 1.1522162 0.8001126
