10

C 0.38471985 2.0535512 1.4996214
C 0.18055844 1.0910017 0.8064626
C -0.057469245 -0.04339215 -0.017721599
C -1.2055006 -0.72084624 -0.3730495
N -0.86867833 -1.7409173 -1.2023549
N 0.41525444 -1.7382666 -1.3818927
N 0.9148004 -0.725439 -0.67656124
H 0.5565136 2.9088316 2.116927
H -2.228194 -0.5312935 -0.08461098
H 1.9079953 -0.55322945 -0.68682
