10

O -0.016537009 -1.3745102 -0.95702815
C -0.40562767 -0.3862691 -0.051293407
C 0.6857476 0.0091185095 0.94383
O 0.6348575 1.3863851 0.4719103
C -0.2606421 1.0705535 -0.5028036
O -0.6929741 1.769047 -1.3647705
H -0.65539056 -1.3929756 -1.6804329
H -1.3826457 -0.5843312 0.41001886
H 1.652968 -0.44477513 0.7257473
H 0.44024402 -0.05224323 2.0048223
