11

N 0.73765346 0.68224021 1.27568737
C 0.24318843 0.53575393 -0.07596847
C -1.28013822 0.49211729 0.00897420
O -1.93775355 -0.41401793 -0.42851255
C 0.29925243 -1.60480798 -1.23579269
O 0.01493174 -2.63010348 -1.70159286
N 0.78212756 -0.57467105 -0.81061695
H 1.73105722 0.89311975 1.26282409
H 0.62179288 -0.19060746 1.78034146
H -1.72293122 1.35649939 0.53788034
H 0.51081965 1.45447751 -0.61322405
