12

O -0.66819861 -1.37719720 -0.58054520
C 0.96553055 1.79214130 -0.21211302
C -0.04520492 -0.20763760 -0.76261331
C -0.96898420 -1.70854052 0.77306292
N 0.28077953 0.57143137 0.17582782
H 0.13028393 -0.04716989 -1.83213050
H 0.39852281 2.65397982 0.15532189
H 1.10519051 1.90302819 -1.29853194
H 1.94841528 1.82002357 0.26941691
H -1.63618613 -0.95988953 1.21179888
H -1.45637611 -2.68388817 0.72927476
H -0.05377270 -1.75628150 1.37123084
