12

O -0.5413061 0.61654484 -1.6964022
C 0.18916291 1.1727693 -0.6316901
C 0.36407316 0.16238853 0.48806438
C -0.71203893 -0.78845567 0.83385867
N 0.42262945 -1.2192929 0.016241558
H -0.23981461 -0.3020744 -1.7632922
H -0.36262843 2.0494578 -0.27295855
H 1.1825374 1.5136956 -0.9629491
H 1.048026 0.45591632 1.2817588
H -1.65746 -0.7377527 0.3027128
H -0.775056 -1.1458311 1.8595576
H 1.0818751 -1.7773658 0.5450984
