10

O -0.6641624 -1.6291497 -0.43644416
C 1.1314973 -0.08723661 -0.8951136
C -0.24469632 -0.39758506 -0.42492694
N -1.1357305 0.643369 -0.17608568
N 0.6913471 0.31387937 1.196114
C -0.49648362 0.9486759 0.93679416
N 1.6837448 0.41933572 0.12945306
H -1.5824769 -1.6432513 -0.1217358
H -0.9421477 1.6099145 1.6791807
H 1.5591081 -0.17795192 -1.8872355
