10

O -0.56714 -0.8772725 1.562186
C -0.60692054 1.1071842 -0.7984333
C -0.16208844 -0.35968155 0.38284612
N 1.6056119 0.36070645 -0.47652975
N -1.2203639 -0.0013835648 -0.5963326
C 1.1566088 -0.8070295 -0.18106927
N 0.44641417 1.0321606 0.16011584
H -1.480705 -0.59998846 1.7249389
H 1.6575931 -1.7635154 -0.28076577
H -0.8290101 1.9088196 -1.4969562
