12

O 0.65411768 1.61089089 -0.96889885
C 0.95703806 0.55264127 -1.46545968
C -1.02551236 -0.31243870 0.71664615
O -1.16728576 1.03843672 1.05683142
C 0.41313880 -0.75124979 0.46514724
O 0.84394435 -0.65010859 -0.91305378
H 1.38702588 0.44577277 -2.46906764
H -0.66215916 1.55105016 0.40328472
H 1.09455012 -0.17795186 1.10037808
H -1.39688242 -0.89041916 1.56978811
H -1.62914653 -0.59859589 -0.16041108
H 0.53117133 -1.81802815 0.66481537
