12

O 1.0445772 1.0974442 -1.0128907
C 0.5987649 1.0146521 0.31721792
C -0.44793114 -0.088470876 0.4508503
O -1.4944508 0.18646722 -0.44195116
C 0.156856 -1.4362135 0.11408793
O -0.32763967 -2.1429737 -0.735942
H 0.24117862 1.1341329 -1.5542744
H 0.15969768 1.9597912 0.6660552
H 1.4711868 0.7934969 0.94115895
H -0.8036331 -0.12963907 1.4942596
H -1.6421562 -0.636629 -0.93769777
H 1.0435497 -1.7520587 0.6991262
