11

C 0.5958007 0.73456323 2.2432468
C 0.30557606 0.16787003 0.926692
C 0.07446758 -0.31419167 -0.15165144
C -0.14629132 -0.9696898 -1.4397957
O 0.32334155 -2.055263 -1.7119274
N -0.93492407 -0.26255974 -2.29993
H 0.46207404 -0.021521157 3.021413
H -0.06346189 1.5774537 2.4639978
H 1.6312836 1.0847895 2.2841597
H -1.0365263 -0.6265833 -3.234213
H -1.21134 0.6851325 -2.101991
