11

C -1.8147942 1.1697311 0.7815823
C 1.1051227 -0.75783604 -0.08439972
C -1.0834262 0.061785694 0.55776364
C 0.33010912 0.2763893 0.5705704
O 1.2174803 -1.7635305 0.60469186
N 1.713947 -0.5668455 -1.2885518
H -1.3128482 2.0686269 1.1313689
H -2.8834605 1.2148885 0.58887297
H 1.797057 0.37659168 -1.6323044
H -1.545035 -0.88502043 0.27312502
H 2.4758472 -1.1947808 -1.5027192
