9

O -1.9284651 0.20319213 -0.26278248
C -0.6516646 0.0039358092 0.04518935
N 1.5131451 0.3166143 -0.0708595
N 0.31640384 0.57696915 -0.69539845
C 1.1921825 -0.49685854 1.012061
N -0.17730598 -0.7063522 1.0337603
H -2.4503548 -0.27175045 0.40302747
H 1.9488018 -0.8451191 0.00047042276
H 0.2372575 1.2193688 -1.465468
