9

O -1.0466692 0.97931963 1.3590373
C 0.47316322 -0.28063676 -1.5585575
N -0.36273676 0.56602436 -0.85041744
N 0.49200976 -0.6952842 0.7372026
C -0.31574976 0.28374884 0.48401317
N 0.9446579 -1.0043291 -0.53022856
H 1.6070776 -1.7590871 -0.6110089
H -0.9224165 1.2895446 -1.2702961
H -0.8693363 0.62069964 2.2402558
