11

N -0.94959293 1.31392528 -2.59120975
C 0.46242187 0.72128800 -0.46296794
C -0.32755943 1.06324828 -1.65238526
C -0.03285963 -0.58800720 0.13091525
C -1.09023933 -0.54133330 1.16119895
O 0.65731641 -0.97082895 1.35986900
H 1.51848953 0.65191782 -0.75089576
H 0.33648450 1.52034358 0.27338319
H 0.09331123 -1.42909272 -0.55838818
H -1.50898580 -1.56196972 1.19913396
H 0.84121367 -0.17949132 1.89134642
