15

N 0.24157362 0.25049078 1.0606271
C 0.21359508 -1.4748309 -0.6223369
O -0.38365456 -0.45297816 -1.3340267
N -1.3643131 1.7725612 0.34758112
C 1.0507232 -0.846256 0.5272937
C -0.23102827 1.0681728 0.086088486
O 0.574067 1.5631833 -0.8473276
H -0.44466102 -0.046425574 1.7395083
H 0.8843093 -2.096789 -1.2355466
H 0.48743165 0.73183817 -1.4593138
H 1.9808755 -0.41609713 0.143265
H -0.53504646 -2.156942 -0.17265952
H -2.0967083 1.3097085 0.8621312
H 1.2928121 -1.5414127 1.3361055
H -1.6699758 2.3357763 -0.43138966
