9

O -2.15522899 2.26253770 -0.97887468
C 0.38813810 -0.98375259 0.86295556
C -0.61454524 0.41191379 -0.34559163
N -0.70322615 -0.31406347 0.84344855
C -1.41062400 1.41891991 -0.66194824
N 1.22682725 -0.83705956 -0.25585245
O 0.49098941 0.05110110 -1.11099301
H 0.68434738 -1.65873705 1.65437869
H 2.09332215 -0.35085988 -0.00752286
