9

O 0.6055951 0.9552953 0.8472258
C 0.16487807 1.0043163 -0.42767662
C -1.3229038 0.6845669 -0.19173563
N 0.65162885 -0.44592872 1.0861135
C 1.0010386 -0.8925967 -0.1650527
N 0.67272836 -0.07294247 -1.1357923
O -2.3960924 1.0502187 -0.4369872
H -0.7411356 -0.37987912 0.72670215
H 1.3642629 -1.9030503 -0.30279708
