9

O 1.2016588 -2.642038 1.5158944
C 0.1677605 -0.60872674 0.517765
C 0.7411491 -1.6897968 1.0181621
N -0.8396178 -0.63133323 -0.4483622
C -0.9060293 0.5877953 -0.8346977
N -0.06103056 1.4958704 -0.17286205
O 0.6036051 0.68181556 0.80546623
H -1.5743234 0.9573045 -1.600557
H 0.66682726 1.849109 -0.8008084
