10

O 0.90412045 0.90135384 -0.22964174
C -0.32029977 0.9363795 0.296134
N 0.9490762 -1.4052007 -0.21856408
C -1.6096956 0.3744158 0.5321855
C 1.4339408 -0.31126064 -0.5909461
N -1.0363017 1.7669959 0.8970112
H -1.7470363 -0.34155548 1.3401953
H -2.3846872 0.37424698 -0.23394726
H 2.3148208 -0.11664998 -1.20702
H 1.4960628 -2.178725 -0.5854069
