10

O -0.08176773 0.95441688 -0.87464860
C 1.24315239 0.61894588 -0.75747263
N 1.69666687 -0.04050799 0.20684688
C -0.97249323 0.33320262 -0.10162033
C -1.38586410 -0.74992951 0.72905076
N -2.17330567 0.48133812 0.21419788
H 1.76883829 1.04413682 -1.61551514
H -1.69254442 -1.70871605 0.31162177
H 2.69952298 -0.16934704 0.10791279
H -1.10220498 -0.76353987 1.77962653
