10

O 1.6638633 -0.12881556 -1.4505612
C 1.1611445 0.78920895 -0.8445423
N 0.27758282 0.6461484 0.18930215
C -0.2166465 -0.6580302 0.5746584
C -1.6507401 -0.81491864 0.28365192
N -2.7814903 -0.9153681 0.07570163
H 1.3865489 1.8492926 -1.0582352
H -0.14664431 1.47175 0.5865748
H 0.3558299 -1.393221 0.0033407044
H -0.049447812 -0.8460466 1.640109
