10

O 0.9018105 -1.085518 -0.48138517
C 1.3419333 0.13854153 -0.29798645
N 0.5970847 1.0949359 0.120081626
C -0.5504188 -1.1486576 -0.13906999
C -1.17665 0.044002395 0.29661688
N -1.3936253 -2.02388 -0.14577428
H -1.3866254 0.16616558 1.3549515
H 2.4035225 0.24221654 -0.53736967
H 1.0695833 1.985327 0.23141767
H -1.8066149 0.5868662 -0.40148216
