12

O -1.2608292 -0.66357183 1.2346746
C 0.12735212 -0.48717096 1.1833532
C 0.58485377 0.7042039 0.3457619
O 0.8545057 0.40330878 -1.04576
C -0.14987464 0.029360719 -1.8266395
O -1.2886373 -0.184941 -1.486676
H -1.5826806 -0.6328787 0.31866857
H 0.6600552 -1.3859211 0.8293379
H 0.45276535 -0.30049145 2.2135928
H 1.551829 1.0744075 0.6936165
H -0.1615934 1.5015614 0.39951855
H 0.21225388 -0.05786737 -2.8594487
