12

O 0.7045306 -1.0358402 -0.25163105
C 0.91379213 0.5994362 -0.9031182
C -0.23892836 -0.8403592 0.7969961
O 0.23319368 0.25966135 -1.9454727
C -0.7783255 0.5873727 0.6001148
O 0.37299025 1.2908988 0.1279688
H -1.0253695 -1.6007335 0.74520934
H 1.9849607 0.8096156 -0.9773274
H -1.0992537 1.0617106 1.5265481
H 0.21378803 -0.8322457 -1.3174572
H -1.573325 0.6302909 -0.15114582
H 0.29194674 -0.9298078 1.7493153
