10

O -0.77628812 -1.12487085 -0.07915489
C -1.41467392 0.04224159 -0.31786391
C 0.59553334 -0.76627936 0.20244371
C 0.60474530 0.77391720 0.06313368
N -0.77897108 1.13593312 -0.26902827
H -2.47166067 -0.06449888 -0.54386574
H 0.83398226 -1.11787004 1.20946950
H 0.90174393 1.27889056 0.98793022
H 1.23303905 -1.27931742 -0.52192612
H 1.27254969 1.12185380 -0.73113834
