10

O -1.6864069 -0.592884 -1.5291405
C -0.8049859 -0.2670321 -0.7791044
C -0.37523025 -0.6190578 0.66085875
C 0.77202004 0.40065247 0.44438437
N 0.24182822 0.60731107 -0.89859694
H -1.108861 -0.3509053 1.4232789
H -0.065720774 -1.6572675 0.790628
H 0.72746664 1.2879249 1.0821413
H 1.7809331 -0.020043913 0.46653375
H 0.5189566 1.2113019 -1.6609834
