10

O 1.6689011 -0.13097554 -1.4447176
C 1.1624291 0.7878627 -0.8451861
N 0.27538905 0.64641804 0.18570778
C -0.21511813 -0.65786815 0.57442963
C -1.6502154 -0.81452125 0.28458938
N -2.7803545 -0.91480607 0.07754569
H 1.3822603 1.8488151 -1.0599521
H -0.1493452 1.4691856 0.5838338
H 0.3561621 -1.3932726 0.00271194
H -0.050108194 -0.8408378 1.6410373
