11

C 0.98967123 0.22485983 0.7463403
C -0.77634275 0.80182993 -0.7845119
C -0.32473385 -1.3821255 -0.6107472
O -1.3118709 -0.31300876 1.2976488
C -0.55359536 -0.14374235 0.30083507
N -0.17572315 -2.3664093 -1.2024775
H 1.6932089 0.27985927 -0.08485274
H 0.93736285 1.1611608 1.3033215
H -1.6849307 1.400699 -0.8197627
H 1.2369639 -0.5957079 1.4169807
H -0.030010035 0.9325851 -1.5627741
