11

C 0.08776915 1.09762032 -0.18815166
N -0.79948057 0.42357210 -0.97474455
C -0.45775106 -0.90547629 -0.46284544
O 0.27985305 2.26571106 0.04442700
C 0.68004958 -0.22750783 0.33484844
O 0.60165299 -0.41734312 1.71835130
H -0.14867270 -1.61544834 -1.23429517
H -1.59328037 0.75241580 -1.50421857
H 0.88453372 0.40332801 2.14203495
H -1.21569460 -1.34175605 0.19114698
H 1.68102087 -0.43511546 -0.06655331
