11

C -0.17098705 1.0729232 0.2597576
N -0.8580942 0.6005329 -0.8195999
C -0.22134931 -0.7184548 -0.82369685
O -0.26543874 2.0621724 0.9437824
C 0.70799524 -0.1945192 0.29539084
O 0.65012187 -0.9340502 1.481143
H 0.26184303 -0.9783212 -1.769064
H 0.7224392 -0.31221452 2.2167523
H -1.6968247 0.93952554 -1.2670529
H -0.8669109 -1.528228 -0.47722593
H 1.7372056 -0.009366246 -0.040186644
