11

O -1.87993721 -0.08110442 -0.10313674
C -0.62516277 0.49333756 0.07861060
C 0.27314168 0.07224712 1.26339412
O 1.37216716 -0.18541051 0.34240814
C 0.54378688 -0.00221197 -0.74362191
N 0.70702132 -0.25814592 -1.96047540
H -1.76727690 -0.94866986 -0.50969349
H -0.74827190 1.57787501 0.01754093
H 0.54659169 0.83454382 1.99493603
H -0.05263909 -0.85039093 1.75295840
H 1.63057932 -0.65206980 -2.13292088
