9

N -0.2865278 1.3930233 -0.5753126
C 0.64721584 0.41701794 -0.68425435
O 1.6210073 0.4374082 -1.4051201
C 0.4051601 -0.7440221 0.17405131
C -0.8199515 -2.1135228 1.745017
C 0.5556703 -1.9052274 0.67748475
N -0.83912945 -0.9852174 1.2246556
H -0.19102183 2.2006457 -1.1731359
H -1.092423 1.2998947 0.01661418
