9

N -0.7927888 -0.5848345 -1.0681864
C 1.0694406 1.1386238 1.6023624
O -0.90534717 1.6809216 -0.7958255
C 0.86617583 -0.5497273 2.0305684
C 0.60821354 0.477443 0.5448626
C -0.4466683 0.59777284 -0.5058255
N 1.360886 -0.75927365 0.88347226
H -0.290752 -1.4361928 -0.8753393
H -1.4691597 -0.56473273 -1.8160889
