9

N -0.25962833 1.221576 1.52169
C -0.3685043 1.1578174 0.16679554
O -0.74397343 2.0658023 -0.54214597
C 0.014638371 -0.1418444 -0.40909916
C 0.30296692 -1.1644086 -0.97794425
C 0.6327906 -2.3393605 -1.6321309
N 0.9063766 -3.3230705 -2.1739593
H 0.039766304 0.43665835 2.0780644
H -0.52443296 2.0868301 1.9687294
