11

N -1.3418915 -0.93675894 0.49744025
C 0.61516786 0.23754984 -0.8352954
O 1.4942183 0.28677425 1.4126153
C -1.4126889 0.31011686 0.30652693
C 1.5912753 -0.08925345 0.27515388
O -0.48681504 0.99468815 -0.38300216
H -2.1252246 -1.2505295 1.0604184
H -2.2020645 0.9965805 0.6218739
H 2.4498794 -0.71012884 -0.06421313
H 1.1238276 0.85772914 -1.5806247
H 0.294316 -0.696768 -1.3108933
