11

N -0.50758135 0.23582102 1.1304466
C -0.5462129 -0.7231798 -0.21970524
O 1.0951782 0.8398743 -0.32131642
C 0.976225 -0.60569 -0.44756845
C -0.019459367 1.1752448 0.29902837
O -1.2367388 0.08655213 -0.9768358
H -0.26261628 2.2360892 0.30829763
H -0.90052617 -1.7435161 -0.015109499
H 1.5808947 -1.0951326 0.31551376
H 1.2844034 -0.8596883 -1.460577
H -1.4635668 0.45362517 1.387826
