11

N -0.32124254 -1.3927865 1.1768256
C 0.1681495 0.9360279 -1.3964952
C 0.9368902 0.35555592 0.6765496
O 0.06895949 1.378941 -2.5029006
C -0.2564537 -0.3728631 0.36630866
O 1.2051523 1.0753307 -0.56259376
N -0.8193853 0.103394486 -0.7666056
H -1.5055983 -0.36001435 -1.342717
H 0.89994186 -0.95071226 1.4519168
H -1.1753222 -1.8704956 1.4329393
H 0.7989088 1.0976218 1.466772
