10

O -1.6903522 -0.3427894 -1.4082102
C -0.80042505 -0.16479042 -0.6286445
C -0.26719064 1.0324185 0.16554707
N 0.6100271 0.09195315 0.89735377
C 0.2871612 -1.0399702 0.0005175076
H 1.0630882 -1.3055326 -0.7310152
H -0.98991925 1.569799 0.7890218
H -0.04781528 -1.9517924 0.5065219
H 1.5889883 0.35440117 0.8912375
H 0.24643779 1.7563033 -0.4823295
