10

O 0.7912729 1.9326745 -0.7653798
C 0.3546782 0.89026666 -0.37698928
C -0.92908496 0.4422662 0.32694802
N -0.5080544 -0.9571451 0.09352349
C 0.83444506 -0.5656934 -0.38759437
H -0.9541256 0.7664417 1.3766056
H -1.8727331 0.7273787 -0.15101138
H -0.4925835 -1.5275282 0.9316061
H 1.662125 -0.7317756 0.31594297
H 1.1140603 -0.97688544 -1.3636515
