9

O 1.6815345 0.92881095 0.60792077
C 0.56413054 0.30619463 0.19458675
N 0.42931876 -0.24507307 -0.9992165
N -0.8104806 -0.7236989 -0.9583307
N -1.4802971 -0.52853876 0.15565903
C -0.6247127 0.1342129 0.9260903
H 2.324794 0.891688 -0.112461254
H -1.2100427 -1.2139801 -1.7409886
H -0.8742449 0.4503843 1.9267399
