10

C -1.1600677 -0.34099662 -0.07758345
O 1.1778051 -1.1712801 0.2429835
C 0.25673136 -0.14557843 0.47881702
O -2.0631888 -1.1043968 0.066456
C 0.30351028 0.9841577 -0.5475533
O -1.0888433 0.73770976 -0.90391004
H 0.43462598 1.9989668 -0.16905648
H 0.9275626 -1.9354873 0.77637905
H 0.9653924 0.77715504 -1.3884157
H 0.24647188 0.19975005 1.5218834
