10

C -0.98983276 0.38436067 -1.3128228
O -0.5377804 -0.39406484 -0.19434981
C 0.5233872 0.09608413 0.4351906
O 1.1092672 1.108599 0.14899586
C 0.96364695 -0.7671964 1.6147816
O 0.40875745 -1.7760366 1.9497666
H -1.8475535 -0.15549003 -1.7077937
H -1.2803341 1.3874577 -0.98833233
H -0.20181964 0.46223533 -2.0674362
H 1.8522618 -0.34594885 2.1220002
