9

O -0.49718985 -1.5601158 -0.42964354
C 0.99368817 0.21439795 0.09998863
N 0.14963795 1.1439214 0.21315765
C 0.6349323 -1.2183281 -0.20004219
C -1.2464409 0.96859235 0.13760789
O -1.9555037 0.8430931 1.0965743
H 2.0563936 0.45093906 0.20004284
H 1.4779382 -1.9323139 -0.21953723
H -1.6134559 1.089814 -0.8981483
