9

O 1.7442298 0.5367714 -1.6439972
C 0.88965094 0.35417232 -0.8196928
N 0.2667842 -0.8132612 -0.44071022
C -0.6710553 -0.5566986 0.556888
C -0.6166766 0.75986814 0.7843723
O 0.3243281 1.3355448 -0.039512884
H 0.48915035 -1.7002535 -0.8574488
H -1.2786444 -1.3280258 1.0018145
H -1.147767 1.4118824 1.4582871
