9

O 1.1107605 2.3024716 -0.26527748
C 0.49189255 -0.9912544 0.10499259
N -0.76969653 0.9472916 0.14231916
C 0.52729446 1.2732694 -0.09393952
C -0.80748856 -0.5247048 0.21634908
O 1.3042516 0.004680736 -0.1148432
H -1.6589719 -1.0199724 0.66515523
H 0.898166 -1.9935058 0.16799273
H -1.0962081 0.0017239485 -0.82274866
