9

O 1.7437541 0.5394157 -1.6431988
C 0.8897305 0.35492536 -0.8191912
N 0.2670718 -0.8122463 -0.4419827
C -0.67112684 -0.55762786 0.5555493
C -0.6172063 0.7585554 0.7838733
O 0.32410988 1.3358856 -0.036773518
H 0.49106342 -1.6997712 -0.85567224
H -1.2780889 -1.3291941 1.0001146
H -1.1493076 1.4100572 1.4572812
