11

N 1.19702563 -1.52167493 -0.67990502
C 0.47459903 -0.56887495 -0.24460636
C -0.98398081 -0.42195896 -0.63196174
C -0.42239623 1.24770230 0.74818701
C 0.72945497 0.56756830 0.64896035
O -1.45923316 0.75326313 0.04695257
H 2.14522453 -1.45335148 -0.31498291
H -1.11088478 -0.27581414 -1.70749482
H -1.58492362 -1.27565372 -0.30654474
H -0.65165903 2.14504221 1.31189500
H 1.66677352 0.80375260 1.12950025
