10

N -0.31021464 -0.21085122 -1.53503334
C -0.84311159 -0.51401423 -0.25062646
O -0.42098477 -0.18661695 2.05606710
C -0.01810105 0.01456258 0.92898733
C 0.16233433 0.04993164 -2.57214786
N 1.11808622 0.67076271 0.62041563
H -1.84859154 -0.09423086 -0.16272601
H -0.92266729 -1.59827761 -0.13467541
H 1.40765170 0.83591006 -0.32994400
H 1.67559906 1.03282415 1.37968314
