10

N -0.6617385 -0.04941863 -1.2984647
C 0.43843433 -0.44122738 -0.6153187
O 1.3229606 -1.1444192 -1.0543026
C 0.588178 0.14830565 0.78010875
C -0.90339094 -0.18497087 1.6090972
N -0.82213044 1.009147 1.5580957
H -1.4245564 0.4212682 -0.83787996
H 1.2495362 -0.46535036 1.3856986
H 1.0156902 1.1506407 0.68824255
H -0.80298287 -0.44397512 -2.2152772
