9

N -0.63103265 -0.6194902 -0.85169476
C 0.2419623 -1.0444193 0.18491335
N 0.6019505 1.1284982 0.50061125
C -0.54275006 0.37477005 0.21085714
O 1.4415128 -0.55417275 0.12783183
H -1.5003176 0.8233184 0.47081146
H -0.008652889 -1.8582307 0.8650724
H 0.46166402 2.1011386 0.14336005
H -0.06433649 -0.35141236 -1.6517628
