9

N 0.47148427 -0.8337538 0.7586833
C 0.7150504 0.086265154 -0.34263846
N -0.46791306 0.33562344 -1.1846273
C -0.09638314 0.4827242 0.80986
O -1.2664232 0.5922352 0.005978542
H -0.005198478 1.1339042 1.6687053
H 1.716678 0.28896978 -0.6960041
H -0.8440838 -0.5269798 -1.5870885
H -0.22321108 -1.5589881 0.567131
