10

O 0.95589 2.0902865 -1.1671062
C 0.67162526 1.1156449 -0.5485017
O 1.1274053 0.7558707 0.7104848
C 0.49942786 -0.53600967 0.5686805
C -0.96566707 -0.36927894 0.50666165
C -0.120665416 -0.1476039 -0.74362975
H 1.0767621 -1.4049245 0.84942406
H -1.5553076 -1.2806948 0.47651023
H -1.4304888 0.47184035 1.0142065
H -0.25898162 -0.6951309 -1.6667304
