11

C -0.47104930 -0.43339206 0.11144137
N -0.15037193 -1.55451042 0.59661977
C -1.57541654 -1.35306597 0.11191903
C 1.45514841 1.03560671 -0.03367038
N 0.02450132 0.79140887 -0.13558633
H 1.63124015 2.10210111 0.12852947
H 1.99738933 0.71305556 -0.93034406
H 1.83558773 0.48127581 0.82650389
H -0.52132487 1.37658027 -0.74454945
H -1.87114634 -1.86698572 -0.80450782
H -2.35455731 -1.29207399 0.87364452
