11

C -0.34950623 -2.0442686 0.15512003
N 0.74397874 -1.2411072 0.8373877
C 0.4434075 1.7300428 -0.037593782
C -0.10243358 -0.6287736 0.12761861
N -0.45243803 0.6071131 -0.26837555
H 0.8999297 1.6058424 0.94631594
H -1.1283549 -2.4644275 0.79376495
H 1.2376462 1.7905625 -0.790993
H -0.13041276 2.660314 -0.04488784
H -1.1040432 0.66055524 -1.032406
H -0.05777345 -2.6758533 -0.68595105
