11

C 1.3807099 0.0048170732 0.022584185
N 0.2402954 -0.6256465 -0.6311721
C -0.9971959 -0.49852943 0.110386945
C -1.427379 0.90300596 0.33757335
N -1.7089387 2.0151732 0.46945906
H 1.2470725 1.081375 0.2103339
H 2.266474 -0.13683915 -0.6037409
H 1.5667393 -0.4925169 0.9813646
H 0.1140925 -0.239178 -1.5599114
H -1.7970638 -1.0234914 -0.42144853
H -0.88480556 -0.98816967 1.0845709
