11

N 0.71363431 0.66022470 0.84557898
C 1.41783049 -0.24796784 0.24995983
C -1.36775895 -0.25586685 0.03310007
C -0.51450920 1.02959481 0.16430699
C -0.36722277 0.01910472 -1.02010442
O 0.88098971 -0.68602087 -0.89024129
H -1.19008978 -1.11212275 0.68974205
H -2.40938823 -0.10881285 -0.22948657
H 1.01702631 1.12648460 1.68838986
H -0.57607080 0.19365134 -2.06651508
H 2.39555886 -0.61826889 0.53526988
