11

N 1.1628007 0.06903247 0.14536926
C 0.21519 0.3858323 -0.9516462
O -0.9789238 -1.3166904 0.19800732
C -1.0819533 -0.07690114 -0.20978893
C 0.31724948 -0.09322003 1.1931301
O -0.7565298 0.6603918 1.1172101
H -2.034831 0.29378062 -0.6172716
H 0.43363622 -0.22034824 -1.8308225
H 0.6732417 -0.46826366 2.1527898
H 1.8202379 -0.68579715 -0.009143966
H 0.2298817 1.4521834 -1.1878338
