11

N -0.14150941 -1.1740878 0.15904291
C -1.0640634 -0.038906466 -0.1206808
O 0.97445977 0.30028024 -1.1350117
C 0.04787249 1.015286 -0.30662146
C 1.0999675 -0.41940033 0.082998596
O 0.87327373 0.7824318 0.8399784
H 2.0273035 -0.9610843 0.26319274
H -1.7313824 0.19033335 0.716117
H -0.28796592 -1.5384908 1.0956144
H -1.6422676 -0.2095343 -1.0313288
H -0.15568806 2.0531726 -0.5633015
