9

O -1.1221668 0.36424476 -1.0491594
C 0.07549713 -0.08860329 -0.51351607
C 0.48723975 0.74289143 0.70167094
O -0.23092926 1.6271554 1.0965259
C -0.001399514 -1.5054046 -0.067061506
N -0.050727993 -2.594144 0.31614143
H -1.4825201 0.9976281 -0.40430668
H 0.87791204 -0.029688416 -1.2628021
H 1.4470948 0.4859209 1.1825076
