11

O 1.2537519 -0.6531955 -2.1063778
C 0.6238385 -0.34692648 -1.1154782
N 1.1417044 0.029754493 0.0997948
C 0.12982954 0.33721566 1.0825412
C -1.1396087 0.09373966 0.30688396
C -0.86233187 -0.29288718 -0.937365
H 2.1338732 0.08299067 0.25951606
H 0.19382249 1.3751343 1.4319378
H 0.19437194 -0.31538886 1.962918
H -2.120546 0.23188372 0.750328
H -1.5487052 -0.54232055 -1.734699
