11

O 2.21204740 -1.71459576 -0.86454607
C 1.20156834 -0.93485079 -0.53776827
N 0.91851056 -1.04314601 -1.75810975
C 0.79985974 -0.35326435 0.72578076
C -0.29545452 0.40578654 0.84234809
C -1.24769138 0.77364463 -0.25271661
H -1.30250195 1.86390105 -0.33742962
H -0.52503310 0.79993374 1.83355562
H 1.44656559 -0.57291879 1.56976239
H -2.25120537 0.41476436 0.00014461
H -0.95666510 0.36074531 -1.22102131
