10

N -0.1590832 0.7433904 0.6850136
C 0.014861022 -0.5274948 0.2786777
N 0.5043099 -1.1940863 1.3152742
N -0.19216916 0.7612581 -1.5330964
N -0.05497122 1.5186054 -0.43831602
C -0.13257785 -0.49592552 -1.15059
H 0.35011202 0.24143103 1.726459
H -0.4972858 2.4247835 -0.4475074
H 0.28766426 -2.1743364 1.4387733
H -0.12086006 -1.2976253 -1.874688
