10

N 0.89142394 1.2888068 -0.22804667
C -0.5957083 -0.41370252 -0.07248661
N 1.4736403 0.32338655 0.54611903
N -0.29515314 0.7435769 -0.7928767
N -1.7161566 -1.0091298 -0.15709828
C 0.63360703 -0.63774866 0.70109665
H -1.7343498 -1.8262 0.44825304
H -1.0512646 1.4142611 -0.84959424
H 1.544673 1.5950317 -0.942956
H 0.8492881 -1.4782823 1.3475899
