10

N 0.75831682 1.27600173 0.55176099
C 0.12125905 -0.76184218 0.83941077
N 0.19563001 0.86859960 -0.68988342
N 0.81665942 0.18113193 1.36919657
N -1.19827551 -0.91024061 -1.31294098
C -0.40080557 -0.37574185 -0.47900456
H -0.41498834 1.56642097 -1.09599827
H 1.68852188 1.66689991 0.43548310
H -1.52402561 -1.81084375 -0.97061689
H -0.04229230 -1.70038557 1.35259289
