9

O 0.31565599 0.11995469 2.11514191
C -0.64731187 -0.24340320 1.15172161
C -0.22127973 0.02575633 -0.23044057
C 0.18757492 0.23582619 -1.34137524
C 1.04641223 0.67671609 -3.65622308
N 0.63966597 0.46806420 -2.56284152
H -0.92795795 -1.30482267 1.23488172
H 1.14441781 -0.32613664 1.90394824
H -1.53717732 0.34804492 1.38518705
