9

O -1.5381521 0.1861012 1.4789549
C 1.2642417 -0.07474441 -0.5349692
C -1.3064607 0.2987478 0.09290131
C 0.104642026 0.11487348 -0.28033033
C 3.6846752 -0.47104934 -1.059326
N 2.5408013 -0.28359425 -0.8125985
H -1.9199318 -0.41153842 -0.48280331
H -1.6320003 1.3064365 -0.18053052
H -1.1978155 -0.6652326 1.7787017
