10

N -1.6364582 0.29894382 0.9181188
C 1.3210257 -0.3451126 -0.67893225
N 0.67417425 0.6667531 1.1517107
O 1.8326755 -0.9200731 -1.6801431
C -0.3542672 0.20825504 0.47245115
O 1.8140409 0.28053805 0.36599624
N -0.00094221137 -0.42047077 -0.693466
H 0.4609648 -1.0499318 -1.7469058
H -2.3440013 0.34850273 0.20041478
H -1.7672124 0.93259555 1.6907551
