10

O 0.5326202 -1.377907 1.1484994
C 0.079211086 -0.25232455 -1.1507356
C 0.31103978 -0.3064258 0.3435033
C -0.79539114 0.7291857 -0.9205301
N 0.72609735 0.9814874 0.8068207
N -0.75357014 0.6766712 0.5522164
H -1.3673443 1.4485036 -1.4924706
H 0.8073085 0.8992557 1.8262645
H -0.076614164 -2.0823274 0.89704776
H 0.53664285 -0.71611863 -2.0106158
