10

O -0.24315004 -0.17638446 2.025802
C -0.1071094 -0.03766198 0.69091076
C 0.7052047 -0.61278147 -0.2591306
C 0.29529268 0.012215637 -1.4638942
N -0.6736223 0.88798684 -1.2764027
N -0.90608734 0.8431105 0.05397568
H 0.39174643 -0.8325512 2.3371117
H 1.4698689 -1.3619889 -0.111624986
H 0.68092436 -0.15258434 -2.461683
H -1.613068 1.4306395 0.46493557
