9

N -2.0107079 0.343474 0.049510922
C 0.54138184 0.64705426 0.20653228
C 1.2917911 -0.73316276 0.34986272
C -0.8055615 0.46055254 0.17102043
N 1.2817426 -0.056605086 -0.8745196
H 0.6238355 -1.6181338 0.34251854
H -2.545792 -0.18243116 0.7348371
H 0.9565412 1.5500388 0.6394454
H 0.66676944 -0.41078696 -1.6192079
