9

N 1.1091197 -0.97787017 -2.18794
C 0.8965254 -0.5091141 -1.1529809
C 0.6166592 0.052834913 0.15561257
C -0.7113706 0.6907205 0.37994513
N -0.3913941 -0.57926744 1.0047742
H 1.4907526 0.42665464 0.68275565
H -0.7703646 1.5406076 1.0551577
H -1.4037277 0.7092192 -0.45708737
H -0.83620006 -1.353785 0.51976293
