11

O -1.3421639 -0.7635232 -0.6779169
C -0.9487385 0.53127116 -0.26824307
C 1.3795662 -0.47926873 -0.36593786
C 0.46319625 0.47677678 0.2868162
O 0.6111238 -0.65607697 1.1897321
H -0.96897525 1.2628955 -1.0851753
H -0.644863 -1.0666403 -1.27874
H -1.6576238 0.8507314 0.50460094
H 2.4037566 -0.25164345 -0.021470273
H -0.07595887 -1.2880743 0.90838486
H 0.78068036 1.3835521 0.80794924
