11

O 0.7733702 1.1944352 -1.0692952
C 0.10095285 -0.58103156 0.5895511
C 1.2723202 -0.30792168 -0.29490846
C -1.3171026 -0.3482892 0.28789032
O -0.5819607 0.5736188 1.1104459
H 0.33564824 -1.332629 1.3476996
H 1.2583382 -0.97732794 -1.1670276
H -2.0954292 -0.898349 0.8150962
H 1.6825349 1.1102656 -0.55995697
H 0.1656597 1.5312148 -0.36538136
H -1.5943317 0.03601391 -0.6941133
