11

O -1.63985673 -0.22392591 -0.32352732
C -0.76228242 0.81880161 0.05289169
C 0.64764541 0.27012403 0.17809791
C 1.01641567 -0.79308898 -0.77763811
O 0.64076749 -0.98609394 0.91455320
H -0.74667848 1.64565650 -0.66761472
H 1.35835263 0.95081317 0.65367633
H -1.11676411 1.20198583 1.01693197
H -0.26015363 -1.33880012 0.79372698
H -1.24827527 -0.61581209 -1.11862864
H 2.11082963 -0.92966001 -0.72246927
