11

N 0.7345276 1.7350343 2.3439727
C 0.24906291 1.3213868 1.3813303
C -0.34651995 0.78138286 0.14404504
C 0.58070153 -0.117367215 -0.6995352
C -0.40063897 -1.2314502 -0.31243545
O -1.2418069 -0.30182877 0.39775223
H -0.83518946 1.6017921 -0.39146638
H 0.59170747 0.14428498 -1.7584261
H 1.6000215 -0.22214957 -0.32714322
H -0.93394154 -1.7121485 -1.1359361
H 0.0020759827 -1.9989371 0.3578418
