11

O 1.2539256 -0.65627503 -2.105069
C 0.623056 -0.34673077 -1.1158859
N 1.1408424 0.034519903 0.09823535
C 0.1297985 0.33952978 1.0815216
C -1.1392448 0.0944911 0.30667195
C -0.86103827 -0.2938406 -0.93661726
H 2.1330855 0.08149962 0.2576269
H 0.19175859 1.3766804 1.4334939
H 0.19467397 -0.3146445 1.9608475
H -2.1184509 0.23048185 0.75283325
H -1.5484061 -0.5457118 -1.7336586
