11

O -0.48406374 -2.4977927 1.0276889
C 0.8902633 -0.5140194 0.6426624
N -1.3958807 -1.0198675 -0.12675688
C -0.44789833 1.0335964 -0.6728858
C 0.81525564 0.6643835 0.025975835
C -0.3044729 -1.3759259 0.53550696
H -0.2970431 1.5440034 -1.6279606
H -1.0282301 0.068062745 -0.97563535
H 1.7463204 -0.88042897 1.1985812
H 1.643157 1.3714868 0.015971199
H -1.1374075 1.6065019 -0.043147888
