9

N -0.7732851 0.24508463 -0.8761755
C 0.5730848 0.3094886 -0.7609333
C 0.87058556 -0.11185564 0.5152172
C -0.38745382 -0.40866113 1.0869014
N -1.3788913 -0.18931489 0.23677503
H -1.3395753 0.4791859 -1.6748732
H 1.1972305 0.64278316 -1.5779126
H 1.8469286 -0.19491455 0.9691741
H -0.6086235 -0.77179605 2.0818267
