9

N -0.15679964 2.64427943 0.44249758
C 0.63347619 0.29963714 -0.40758552
C -0.21475113 -0.86557602 0.04446831
C 0.17559106 1.60227187 0.07801925
N -1.23690274 -0.70828397 0.77178352
H 0.14858892 -1.83407524 -0.32096873
H 0.66305341 0.32285345 -1.50313678
H 1.66744361 0.14291547 -0.07632853
H -1.67969924 -1.60402209 0.97125072
