12

O 2.47315512 0.98380777 0.01809278
C -1.75950855 -0.77967222 -0.29711679
C 0.53899316 -0.45258546 -0.00495858
N -0.55851986 -1.28266811 0.27159970
N 0.60977273 -1.38227377 -0.83092595
C 1.18339436 0.77089346 0.52332922
N -1.90534156 0.45920304 -0.50313029
H -2.84368401 0.66979683 -0.83927180
H 0.56944522 1.62256601 0.21491831
H 3.03220296 0.24723980 0.29346188
H -2.50057368 -1.56649307 -0.46865540
H 1.16066419 0.71018611 1.62265694
