12

O 2.1335611 0.047234595 -1.8470299
C 1.6803292 0.2663614 -0.54403025
C 0.23315659 -0.078823455 -0.33783185
N -0.27546713 -0.18485478 0.952507
N -2.5692925 -0.1856997 0.4937929
C -1.5647924 0.015168863 1.2629292
N -0.6656771 -0.46389142 -1.0983412
H 2.235375 -0.28525993 0.22764091
H 1.7846416 1.3350177 -0.3353281
H -1.6627623 0.32807454 2.3093674
H 2.1072888 -0.89914304 -2.025918
H -3.4363606 0.105815224 0.9422417
