12

O 2.3571048 -0.38046554 1.176437
C 1.0024157 -0.025312308 1.1238747
C 0.27409485 -0.648248 -0.004283724
N 0.36916104 -1.3153754 -1.0518789
N -1.1478169 1.4213927 -0.8697662
C -1.5762377 0.2572403 -1.1141543
N -1.045674 -0.86835724 -0.428334
H -1.6784135 2.1250744 -1.3807718
H 2.4156654 -1.3335842 1.314388
H 0.9564697 1.0589147 0.98338366
H 0.45963034 -0.2760019 2.0486786
H -2.3864 -0.01527733 -1.7975731
