10

C 0.38440755 2.0524406 1.5018393
C 0.18125989 1.0918498 0.80507046
C -0.058533534 -0.04285671 -0.020221114
C -1.2049685 -0.72145605 -0.37310407
N -0.86907345 -1.7421427 -1.2000442
N 0.4155025 -1.7378099 -1.3823352
N 0.91476184 -0.72409403 -0.68022454
H 0.5549535 2.9081872 2.1209848
H -2.226564 -0.53391343 -0.08284835
H 1.9082541 -0.55020446 -0.6891171
