10

C -0.4550885 0.07713974 2.474426
C -0.8714083 0.12935321 -1.0605597
C -0.17655917 0.03127588 1.3086569
C 0.17583658 -0.026644561 -0.08913857
N 0.7966042 -0.12398889 -2.6041644
N 1.3741298 -0.20914787 -0.5364622
N -0.30356035 0.041351307 -2.2608883
H 2.0919447 -0.32121515 0.17481749
H -1.9275777 0.28427857 -0.91816163
H -0.7043211 0.11759778 3.5114741
