11

C -0.21837082 1.58262722 -0.34037369
N -1.08873866 -0.54960705 0.42489860
C -0.55139079 -1.74380277 0.57989000
N 0.76213079 -1.83558335 0.25920804
C 1.04370776 -0.60287821 -0.12009349
N -0.04660198 0.17723491 -0.02742417
H 0.74269040 1.99184116 -0.65875337
H -0.56822609 2.11259664 0.54753804
H -1.13057871 -2.58406836 0.94032554
H -0.94897501 1.69352140 -1.14441870
H 2.00435287 -0.24188170 -0.46079685
