11

N 0.9134148 0.30338794 -0.71032983
C -0.7351866 -0.60812336 0.5322076
C 0.9814604 -1.0328858 -0.717944
N -0.5064802 1.8742759 0.35429913
C -0.15166745 0.57544565 0.056913063
N -0.066007204 -1.6609821 0.011848258
H 1.1571004 -1.6672667 0.39784724
H -1.4805517 2.0217218 0.56328607
H -1.5458794 -0.7433609 1.2366288
H 1.5684323 -1.6093949 -1.4248801
H -0.13463517 2.547182 -0.29987583
