11

N -0.7285345 -0.44879657 -1.7665635
C -0.16945525 -0.11164857 -0.5619634
C 1.1444958 0.5428832 1.025916
N 0.9499816 0.5009621 -0.4051539
C -0.75469023 -0.4711299 0.7528753
N 0.011061312 -0.08519668 1.6985198
H -0.33033314 0.020851096 -2.5654943
H -1.6920612 -0.99394256 0.92472595
H 2.0606077 0.013832212 1.3138428
H -1.7324325 -0.543566 -1.7961537
H 1.2413605 1.5757515 1.3794489
