11

N 0.88792151 -0.97947459 1.06984825
C -0.32093928 -0.89987934 0.66750069
C 1.59548461 0.06035437 0.32845487
N 0.67154043 0.76535191 -0.52995054
C -0.45890452 0.18471967 -0.33506512
N -1.62399117 0.47218860 -0.99630222
H -2.48699411 0.27070013 -0.51433092
H -1.10958924 -1.55669637 1.02548490
H 2.39585359 -0.40833077 -0.25618308
H 2.07135608 0.74470266 1.04007202
H -1.62173815 1.34636341 -1.49952880
