11

N 1.471591 0.37118158 1.3603444
C 0.4365477 0.20042773 0.439468
N -0.27829167 1.2320595 0.024615604
N -1.2139623 0.6847211 -0.7800538
C -1.0986514 -0.65273887 -0.8922863
C -0.028756259 -1.022176 -0.10702915
H 2.2827415 -0.19905196 1.1609726
H 1.73352 1.3437237 1.4438841
H -1.8892171 1.2905425 -1.2131808
H -1.7737994 -1.2346672 -1.5029198
H 0.35827786 -2.0140219 0.066185415
