11

N -1.0573851 1.1031164 -0.2631449
C 0.06020531 1.2295269 -1.0548451
N 0.7558372 -1.2806345 1.3170629
N -1.0476035 0.1273436 0.5857278
C 0.20559917 -0.47736347 0.31108963
C 1.0071163 0.26957136 -0.70266163
H 1.699317 -1.5560029 1.077165
H 0.0932766 2.0261183 -1.7872198
H 0.028094979 -1.0213987 -0.71820045
H 0.1698948 -2.0601575 1.5861809
H -1.9143529 1.6398808 -0.35115424
