12

O 0.00884404 -0.35498486 1.94685065
C -1.04797249 0.02324841 1.50206267
C -0.13697071 0.77683590 -0.57994276
O 1.66501258 -0.84940097 -0.20376307
C 0.59919846 -0.47952882 -1.03230144
O -1.26595563 0.53320521 0.29470860
H -0.14100606 -1.28633244 -1.16804097
H 1.33023317 -0.84700964 0.71022894
H -1.99192484 0.01061388 2.06091474
H 0.55983097 1.45743224 -0.08235126
H 1.02522457 -0.26425063 -2.01879558
H -0.60451397 1.28017132 -1.42957017
