12

O -0.66361165 -1.4529835 0.88297045
C -0.059791945 -0.22290839 1.1987051
C 0.44526872 0.45441762 -0.07357642
O 1.3274289 -0.4239284 -0.7210584
C -0.71142316 0.7755725 -0.9961785
O -0.7245283 0.37693638 -2.1361327
H -0.028819436 -1.9119797 0.31136844
H 0.78607196 -0.3467067 1.8889692
H -0.8156787 0.3993793 1.6895247
H 0.938813 1.4062581 0.1871342
H 1.0301801 -0.4622464 -1.6462551
H -1.5239094 1.4081888 -0.5854706
