12

O 1.1971595 -1.277106 -0.686351
C 0.025252333 0.8687008 -0.4508769
C 0.18069087 -0.45648178 -1.1889526
O 0.27330273 -0.67060226 1.841716
C -0.6557855 0.08877624 1.7079353
O -0.9210572 0.8416499 0.64582014
H 0.9971803 1.2017511 -0.07567725
H 0.44962 -0.21767834 -2.2241645
H -1.4157821 0.27447483 2.4769883
H -0.80244285 -0.95642376 -1.2166317
H -0.4003463 1.6313492 -1.1074157
H 1.0722084 -1.3284099 0.27760932
