9

O 1.43114 -1.507704 -0.10078738
C 0.6929639 -0.46469992 -0.09339266
N -0.49449605 1.417686 -0.14595655
N 0.7426891 0.84311855 -0.36874452
N -0.54713166 -0.7625928 0.31048313
C -1.2333162 0.41589266 0.2572465
H 0.17237434 -1.8793224 0.31710285
H -2.275151 0.53402746 0.51649404
H 1.5109278 1.4035949 -0.6924454
