12

C -0.41750443 -1.0687072 0.5267342
C -0.58057505 1.2716641 1.0982326
N 0.09281207 -0.17201577 -0.24995969
C 0.8459809 -0.41687852 -1.4596965
O -1.0202837 -0.6603858 1.5568404
H -0.57815164 1.8940824 0.20908555
H -1.4841936 1.3947574 1.6861286
H 0.8888512 -1.4878479 -1.6964505
H -0.3379 -2.143338 0.31906512
H 0.33352548 1.3320025 1.6772851
H 0.3847188 0.10157917 -2.308593
H 1.8727202 -0.044912055 -1.358672
