11

C 0.33629307 0.1637645 -0.34550387
C -0.37686405 -1.1473593 -0.60247695
O 0.1464871 -2.211917 -0.37282547
C -0.4637354 1.0149676 0.6446669
O 1.6305689 -0.08126632 0.12053807
H 0.06736925 1.9523474 0.83265156
H -1.4592419 1.2525889 0.25515476
H 0.37796137 0.6930719 -1.3131689
H -0.5709333 0.48736003 1.5979643
H -1.4063083 -1.077525 -1.0066311
H 1.7184032 -1.0460325 0.18963073
