11

N 0.6319007 0.5726006 1.3306326
C -0.20671438 -0.17474005 0.4301304
O -1.7525238 1.3965256 -0.8568057
C -0.96417457 0.5160471 -0.718425
C 0.47401485 -0.92192096 -0.7240675
O -0.3826881 -0.246979 -1.689347
H -0.87457776 -0.8170124 1.010741
H 0.33744425 -2.002873 -0.7663918
H 1.5209775 -0.65136355 -0.878718
H 0.065336235 1.0409849 2.030207
H 1.151005 1.2887305 0.8320444
