11

N 1.1309887 0.41337895 -0.77760345
C 0.9675067 0.35998952 0.46864647
O 0.031017877 -0.39575502 -1.5052826
C -1.006952 -0.40916845 -0.54788905
C -0.36932722 -0.29652718 0.8926877
O -0.7903324 0.6694794 1.6554958
H -1.6329191 0.48742443 -0.6481735
H 1.6345459 0.8646977 1.1601992
H -1.5812187 -1.3262258 -0.69782376
H 1.8076996 0.9517047 -1.3017863
H -0.19100901 -1.3189983 1.3015299
