11

N -0.4126334 -0.555498 -1.4637023
C 0.19376375 -1.2948283 -0.640494
O 0.7766039 -0.8164554 0.46974617
C 0.69689155 0.59565324 0.6302242
C -0.73069686 1.0814657 0.801376
O -1.0304768 2.243932 0.7100586
H -0.7849147 -1.0966887 -2.2354589
H 0.33510572 -2.377159 -0.6896281
H 1.1633084 1.117482 -0.20967843
H 1.2532625 0.8082863 1.5484227
H -1.4602139 0.29381055 1.0791341
