10

O -0.5548247 1.114707 1.7546227
C -0.29778388 0.54024947 0.73563987
C -0.7349436 -0.8169735 0.22027789
C 0.5854773 -0.6199038 -1.0020614
O -0.82117885 -0.6426645 -1.1712174
C 0.74740696 0.78303754 -0.3624439
H 1.7306539 1.0219487 0.04627187
H -1.4570017 -1.5140905 0.6415551
H 0.44778255 1.5279092 -1.1033933
H 0.35441184 -1.3942196 0.2407488
