11

N 0.88923090 -0.90482766 -1.76904836
C 0.26835789 -0.29608298 -0.73002378
C 0.84915477 -0.54087506 0.58724888
N 0.13625798 0.15932042 1.47874961
C -0.95461391 0.95684600 1.20274968
N -1.40112622 1.10525512 0.00017059
N -0.78564861 0.45558504 -1.01364468
H 1.58045308 -1.60188935 -1.55641598
H 0.44264655 -0.89319321 -2.67207360
H 0.42146468 0.09858160 2.44664118
H -1.44617737 1.46128014 2.02564633
