9

O -1.58180039 0.45120430 0.45585871
C -0.58286915 -0.37173488 -0.05398649
C 0.53132320 0.38387800 -0.65981602
C 0.34231086 -1.96063543 1.80128720
C 1.40893840 1.03764219 -1.14981626
N -0.06269483 -1.25466677 0.95451608
H -1.07237746 -0.99347847 -0.80793830
H -1.17866437 1.09767620 1.05164012
H 2.19583376 1.61011483 -1.59174494
