9

O -1.3095229 0.71003723 0.83335584
C 1.7230216 -0.08798936 2.0565403
C -0.37717563 -0.27183658 0.5144718
C 0.3457286 -0.16394995 -2.0585136
C 0.041958276 -0.22915655 -0.9004169
N 0.78593314 -0.18603387 1.3553305
H 0.6220224 -0.11687431 -3.0898602
H -0.9646914 1.5693119 0.5538235
H -0.86727417 -1.2235082 0.7352689
