9

O 1.2443285 1.0876948 0.4235272
C -0.25220782 -0.35415885 -0.7815895
C -0.83187664 -0.5854829 -1.8065069
C 0.52086985 -0.0645086 0.4173066
C -0.87973434 0.34386232 1.5613035
N -0.30739656 -0.5770125 2.0596647
H 1.1985021 -0.8807803 0.6542443
H 0.6589993 1.8201532 0.18929824
H -1.3514844 -0.78976697 -2.7172482
