9

O -1.3204724 -0.6623023 0.88218004
C -0.5981533 0.29722422 0.15437222
C 0.86133647 0.1960016 0.3385554
C 2.0430117 0.07901986 0.5091395
C -0.92756224 0.23223327 -1.2948399
N -1.2025312 0.14994736 -2.412268
H -1.0063069 -1.5399703 0.63224
H -0.9464667 1.2651911 0.5285108
H 3.0971446 -0.017344857 0.66211003
