11

N -0.9402289 0.8758633 -0.19504021
C 0.27680695 -0.8957733 0.42309713
C -1.0750871 -0.34351692 0.60751677
N 2.2715516 -0.1088745 -0.7711274
C 1.0425099 -0.025949955 -0.380704
N 0.1938336 1.060906 -0.7251817
H 2.5025556 0.7058699 -1.3394227
H -1.3339949 -0.06473714 1.6400982
H -1.8975939 -0.9496472 0.20330356
H 0.63056386 -1.8158373 0.8607776
H -1.6709166 1.5616972 -0.3233172
