11

N 1.0392127 0.1347822 1.7699682
C 0.37276283 0.05910786 0.5401044
C -0.97129333 0.12454401 0.27094638
N -1.0544666 0.06278651 -1.1127807
C 0.20828877 -0.025579613 -1.5860442
N 1.096092 -0.037583433 -0.61887133
H 2.0092783 -0.123234786 1.6486856
H 0.61524737 -0.4282275 2.4953833
H -1.845193 0.22447892 0.894015
H -1.899103 0.08884819 -1.6575823
H 0.42917413 -0.079922326 -2.643824
