11

N 0.62649447 -1.7604592 -0.5277416
C -0.8688433 1.0931118 1.287916
C 0.1590629 -0.5048733 -0.39918435
N -0.73356164 0.1022619 -1.1137955
C 0.3770412 0.5736615 0.6493046
N -0.63640726 1.2875752 -0.16568851
H 0.41644138 -2.271176 -1.3713845
H 1.3614317 0.9981187 0.8460667
H -0.4899393 2.1896193 -0.5967331
H -1.650972 0.3350456 1.3970958
H 1.4392518 -2.0428855 -0.005855652
