11

N 0.90194553 -0.46424943 -0.5684295
C -0.43455032 -0.408978 -0.1936863
C 0.73126954 0.9985047 0.6334284
N -1.2919495 -1.1298666 -0.94574404
C -0.6404919 0.5531154 0.7907673
N 1.6747093 0.026358372 0.70738614
H -2.2771513 -0.9253331 -0.92197853
H 2.5622025 0.34596458 0.32051325
H -1.3038502 0.62735045 1.6401677
H 0.99999547 2.0015638 0.27788344
H -0.92212915 -1.62443 -1.7403077
