9

O 0.83535013 -1.72277990 -0.62297507
C 0.27448234 -0.57404868 -0.21473795
N -0.66008687 0.06985043 -0.89700873
N -0.90786971 1.12343999 -0.12434519
N -0.21538518 1.20966683 0.98957854
C 0.56085014 0.13065439 0.96740718
H 0.44256155 -1.96380882 -1.47242980
H -1.59061355 1.81728014 -0.38333587
H 1.26071108 -0.09025445 1.75784692
