9

O -1.4308813 -1.3564384 -0.2684189
C -0.47506058 -0.46189517 -0.0016545721
N 0.3756134 -0.59175825 1.0161822
N 1.1082617 0.49805 1.06082
N 0.76763964 1.3416659 -0.03004827
C -0.200533 0.708887 -0.7015544
H -0.6473685 1.1120989 -1.5970523
H 1.8733327 0.8065126 0.12480712
H -1.3710041 -2.0571222 0.39691946
