10

C 0.49758260 0.09218438 0.02146975
O -1.84602374 -0.13473286 -0.08382218
C -0.68561673 0.60331348 -0.32294343
O 1.67472598 0.77541482 -0.01685199
N 0.68659692 -1.21961201 0.42952619
H 1.47706332 1.70352866 -0.19594393
H -0.79150273 1.60432125 -0.73338457
H 1.34611968 -1.29820398 1.19284924
H -2.16011040 -0.47133985 -0.93432270
H -0.19883498 -1.65487409 0.64342348
