9

N 0.37632345 -0.03706156 -0.42559109
C -0.17814916 1.10156620 -0.44044178
N 0.50671629 -2.08673398 0.63213024
C -0.01839555 -0.93400509 0.57596601
O 0.12676387 2.02508098 -1.35321430
H -0.94185820 1.47594947 0.24791764
H 0.80248555 1.63522803 -1.93152355
H -0.78681275 -0.57549421 1.28099907
H 0.11292642 -2.60452943 1.41375802
