10

C 0.38565174 2.0538063 1.4993604
C 0.18128572 1.091878 0.8056609
C -0.059366513 -0.042844824 -0.019027809
C -1.2048215 -0.722135 -0.37289762
N -0.8693465 -1.7444221 -1.2006756
N 0.41413304 -1.7384975 -1.3808384
N 0.9141474 -0.7231511 -0.6768596
H 0.5582531 2.9086678 2.115825
H -2.2274303 -0.53289837 -0.08251827
H 1.9074938 -0.55040354 -0.6880288
