10

C -0.7791718 1.1197536 -0.23854661
C 1.0506818 -0.38813135 0.75746983
C -0.078543276 -0.08103187 -0.05966931
C 1.9908687 -0.63608414 1.4635634
N -1.3682392 -0.20307189 -1.8449689
N -1.5300325 1.010389 -1.330096
N -0.46818963 -0.90534395 -1.1886297
H -0.89877594 -1.0709513 -0.0048976606
H -0.75420916 2.01494 0.3680221
H 2.8356113 -0.86046815 2.0777528
