10

C -1.3214229 -1.4766209 1.3567371
C 0.46573305 -0.2568046 -0.18791778
C -0.100774035 0.7982552 -1.0864589
C -0.50499445 -0.93231845 0.6678553
N 1.4377545 1.7059337 0.17640953
N 0.45902804 1.9216889 -0.8844214
N 1.4459233 0.53765476 0.57638454
H -0.8780818 0.65398276 -1.8272502
H 1.0399133 -0.9902845 -0.7681242
H -2.043079 -1.9614866 1.9767859
