11

O -1.4734372 1.6295662 1.2703944
C -0.75162876 0.84275633 0.6941133
N -0.7576505 0.5612497 -0.6524293
C 0.2233512 -0.42733383 -1.0354432
C 0.87242526 -0.7456467 0.28884295
C 0.32361594 -0.027176669 1.2642113
H -1.3946404 1.0156708 -1.2854601
H 0.9534524 -0.03399643 -1.7552706
H -0.23772405 -1.3179021 -1.4829985
H 1.6750882 -1.4703779 0.37512487
H 0.56714803 -0.02680924 2.3189151
