11

O -0.65652692 1.11056699 0.45120639
C -0.93132740 0.09742277 -0.54854646
N 0.87314945 0.35917836 2.13597742
C 0.28479575 -0.14353111 -1.35827715
C 0.13455021 -0.80366504 0.00193509
C 0.25946830 0.25640633 1.05132761
H -1.96384745 -0.08477062 -0.81035308
H 0.99551278 0.66756988 -1.49774501
H 0.17343106 -0.82815042 -2.19348014
H 0.16564855 -1.87191682 0.16710457
H 0.66514579 1.24088983 2.60085098
