11

O -1.11204906 -2.03946215 0.95069139
C -0.80044323 -0.95406883 0.22886880
C 0.49368973 -0.48871547 0.32513347
N 0.75427215 0.66562181 -0.49694936
C 0.01033556 1.71622446 -0.63804198
O 1.42947007 -0.97472364 0.99542434
H -1.54908581 -0.60719050 -0.47585088
H -0.29555489 -2.23312145 1.44599695
H 1.67050098 0.63429038 -0.93811708
H -0.88897349 1.80374295 -0.04296785
H 0.28783804 2.47740242 -1.35418782
