11

O 0.69448483 -1.2125586 -1.4253887
C 0.7112293 1.5689291 0.6206813
C 0.13298908 -0.49977916 -0.5664087
N 0.5080427 0.88751477 -0.46167928
C -0.8711671 -0.8672485 0.30378518
O -1.2876172 -2.1399841 0.24976566
H 0.9093984 2.6300263 0.5569152
H 0.662485 1.0613436 1.574888
H 0.6914385 1.3137425 -1.3670973
H -1.4460746 -0.19353783 0.9306946
H -0.7052085 -2.5484478 -0.41615608
