11

O -1.1200968 1.2524655 -0.48703477
C -0.6119662 0.7315853 0.71640086
C 0.46456024 -0.29902446 0.453435
C 0.423461 -1.1371402 -0.73924494
O 1.2830848 0.0038325894 -0.6721452
H -0.34609723 1.4321635 -1.0391741
H -0.19295359 1.525519 1.3562253
H -1.444256 0.27128395 1.257463
H 1.0131555 -0.65203553 1.3264283
H -0.4116628 -1.0341812 -1.42766
H 0.94277114 -2.0944684 -0.7446934
