10

N -0.89172006 2.6101074 -1.9439174
C -0.51884013 1.6530637 -1.4131392
O -0.3899017 0.44386214 0.57863635
C -0.019595338 0.4195002 -0.79706055
C 0.0076114596 -0.63249683 1.2754238
N 0.6548149 -1.5768707 0.74663645
H -0.45460755 -0.45288566 -1.2947946
H -0.3191238 -0.52811015 2.314137
H 1.0683422 0.3605792 -0.9003281
H 0.8630198 -2.296749 1.4344064
