10

N -2.41073445 1.21512198 -2.02446976
C 0.36974151 -0.68701999 1.19084461
O -0.65369441 -0.23918564 0.44646473
C -0.25922337 0.43030999 -0.74786791
C -1.47892036 0.85739230 -1.44098919
N 1.57314867 -0.52115723 0.85227246
H 0.32249645 -0.24044194 -1.38796619
H -0.02519623 -1.18467054 2.08131962
H 0.36396298 1.29869408 -0.51272583
H 2.19841934 -0.92904289 1.54311790
