10

N 0.29655105 -1.7554144 -0.0036174036
C -0.205116 2.1897078 -0.47522992
O 0.28133526 0.31531534 0.85055417
C -0.22398116 0.7245423 -0.4295238
C 0.58159757 -0.96672136 1.0488617
N -0.20493348 3.3426247 -0.5401515
H -1.245587 0.35473424 -0.56117964
H 0.6696016 -2.6935956 0.20847295
H -0.33628586 -1.8269378 1.1409049
H 0.38681808 0.31574434 -1.2390914
