10

N -1.3169079 -0.6431629 -1.1597421
C -1.2086815 -0.74935246 0.09130913
O -0.17923065 -0.21906613 0.7749038
C 0.7659478 0.4752329 -0.031646978
C 1.8202097 0.98282075 0.8515982
N 2.674137 1.4024702 1.5085908
H -2.1605442 -1.1077805 -1.4878703
H -1.8786076 -1.2543993 0.7928292
H 0.28516787 1.3063276 -0.55745745
H 1.1985096 -0.19309004 -0.78251386
