9

O -0.5454327 1.2763251 1.3133705
C 0.5037185 -1.176888 -1.2945279
C -0.026184393 0.051695757 -0.6725009
O -0.43083462 0.9673598 -1.3428353
C -0.026803982 0.08064083 0.83660275
N 0.9226682 -2.1501873 -1.7490894
H -0.6101579 -0.78501 1.1884198
H 1.0094062 -0.077072464 1.1747999
H -0.7963793 1.8131363 0.54576033
