9

O -1.11708 0.3689897 -1.0515949
C 0.07568997 -0.09173862 -0.51490885
C 0.48605973 0.7424793 0.7031947
O -0.23082006 1.6252316 1.0971403
C -0.0046986225 -1.5057236 -0.06820763
N -0.056054972 -2.592777 0.3173371
H -1.479371 0.9993024 -0.4051474
H 0.88052493 -0.030493442 -1.2625883
H 1.4457499 0.48472974 1.184775
