9

N -0.4605871 0.3480183 -1.68366
C 0.2878678 0.16498774 0.8447289
O 0.2685278 0.6884079 1.938075
C -0.5504747 0.7053975 -0.26029766
C -1.6915578 0.05481475 -1.5374484
C -1.633022 1.4557208 -0.5012918
N 1.0263847 -0.9103906 0.49010247
H 1.6561702 -1.2968291 1.1775919
H 1.096691 -1.210127 -0.4678005
