12

O -0.54394376 0.61644906 -1.6988258
C 0.18634589 1.1725272 -0.63290507
C 0.36217105 0.16278823 0.48637387
C -0.71181923 -0.7884414 0.835255
N 0.42421404 -1.2208375 0.016610919
H -0.23743849 -0.29996535 -1.763511
H -0.3652752 2.0481303 -0.27352676
H 1.181234 1.5144218 -0.9614199
H 1.0457487 0.45734656 1.2805051
H -1.6565796 -0.73984313 0.30392066
H -0.7710887 -1.1456054 1.861944
H 1.0864313 -1.7769705 0.54557896
