12

O 2.1340718 -0.5423307 1.0811651
C 1.3316867 0.5330703 0.59898794
C 0.35062504 0.16684812 -0.45860156
C -1.9925481 -0.36140868 -0.87289274
N -0.9384486 0.032109335 -0.16257149
H -1.8547984 -0.6343124 -1.9090647
H 1.5755211 -1.3270184 1.117735
H -2.9573388 -0.36053208 -0.39128947
H 2.0550869 1.2699176 0.22844039
H -1.1609547 0.29619443 0.7905713
H 0.65670395 -0.08276682 -1.467593
H 0.8003934 1.0102291 1.4451133
