10

C -0.22477588 0.97442186 -0.36856857
C -0.63018495 -0.03904796 -1.2352955
N -0.45575482 -1.334535 -0.98860455
N 0.1324818 -1.7111596 0.13737357
C 0.54135 -0.7895187 1.0052487
C 0.38872698 0.5819001 0.80359006
H -0.38798013 2.0182023 -0.61654407
H -1.1209419 0.18567961 -2.1796505
H 1.015276 -1.1823095 1.9016567
H 0.741803 1.2963668 1.5407946
