11

N -1.3899401 0.24375561 1.6388501
C 1.4363487 -0.020568823 -1.0636067
C -0.53287345 0.12890445 0.6290149
C 0.1564461 -0.57786953 -1.4121658
C -0.9392177 -0.5223292 -0.5859522
N 1.7172694 0.5865174 0.03566537
O 0.6485371 0.6705923 0.92443895
H 2.2857687 -0.06562372 -1.7388386
H -2.3260424 -0.083987005 1.4550668
H -1.142175 0.69752634 2.504207
H 0.08587896 -1.0569178 -2.3866796
