11

N 2.1375875 0.17611285 -0.38265768
C -1.0871364 -0.9055798 -0.23842879
C 0.8924745 0.31967527 -0.033351533
C 0.22501162 -0.88305867 -0.5267708
C -1.646446 0.22824281 0.49309966
N -1.0365177 1.2759885 0.9125665
O 0.3658167 1.322145 0.6194608
H -2.7049258 0.2525482 0.74495685
H -1.757847 -1.7133298 -0.51820505
H 2.8766992 0.8460254 -0.19137025
H 1.7352831 -0.9187696 -0.8792997
