12

C -0.07805018 0.13019603 2.0224974
N 1.3014523 0.74761784 -1.9513508
C -0.6797232 -0.4984469 -0.12856154
N 0.12638694 0.14240389 0.5848704
C 0.33351704 0.025137622 -2.2545574
O -0.6392936 -0.5911796 -1.4820879
H 0.824402 -0.26056212 2.4999056
H -0.9413967 -0.4712327 2.3444197
H -0.21379426 1.1589688 2.3669293
H 0.12372571 -0.22615042 -3.2925055
H 1.3785167 0.9161947 -0.95261115
H -1.5357426 -1.0729471 0.24305205
