9

O 0.66666062 -1.82445816 0.10073710
C -0.93034114 -0.17407931 0.57094237
N -1.91809937 0.20586160 1.16927214
N 0.63116066 1.50906095 -0.81245965
N 1.08855721 0.36371731 -0.60997504
C 0.23490611 -0.52965458 0.04874728
H -2.79523369 0.19972221 0.64606688
H 1.63267755 -1.78137990 0.15748556
H 1.38971213 2.03120995 -1.27081673
