11

O 1.6814271 0.66783094 -0.5133762
C 0.76085263 -0.04734029 0.25187212
C -0.33784539 0.69034725 1.0440075
O -1.350442 -0.14896432 0.41360566
C -0.42207092 -0.68764603 -0.44029084
N -0.5584979 -1.3730462 -1.4823793
H 1.2631016 0.9041181 -1.3503314
H 1.319789 -0.7556187 0.8703074
H -0.3510674 0.5732181 2.1292696
H -0.4635537 1.7373755 0.75239867
H -1.541693 -1.5602744 -1.6750832
