11

N 1.8010924 -1.1008335 -0.014228547
C -0.773102 -1.0351868 0.79162276
C 1.5018361 0.13212372 -0.18294434
N 0.32572284 0.72663784 0.18654679
C -0.88017285 0.1675733 0.13969085
N -1.9774475 0.89615065 -0.18837433
H 2.7368138 -1.2818494 -0.3695861
H -2.855014 0.6156726 0.22256349
H -0.26919264 -1.870752 0.29403308
H -1.8129501 1.8892424 -0.2709118
H 2.202414 0.86122125 -0.60841185
