11

N -0.33111427 -0.68040699 0.70737639
C -0.33242907 0.61799457 1.25101902
C 0.22669558 -0.76077371 -0.61872214
N -0.26658067 -0.45585164 -1.83258391
C 1.01789965 -1.27541188 0.26966002
N -0.66649835 1.61344350 0.54134202
H -0.71250211 2.45352258 1.12308783
H -0.13752940 0.63832960 2.32844598
H 1.65100295 -2.06053158 0.63877190
H 0.38590420 -0.47478189 -2.60396260
H -0.83484858 0.38446735 -1.80443455
