11

N -0.35739848 0.49193358 1.9632516
C -0.1573979 0.18166001 0.6137049
C 0.52542853 -0.86809576 0.05371246
N 0.34613296 -0.71176505 -1.3134139
C -0.42079768 0.38660556 -1.4947878
N -0.7391409 0.95642006 -0.35741863
H -0.75202924 1.4196182 2.0473938
H 0.47777605 0.41451472 2.526353
H 1.0828687 -1.6913873 0.46915114
H 0.713095 -1.3125515 -2.0316796
H -0.7185371 0.7330474 -2.476267
