11

N -1.156533 1.2937795 0.57361764
C 1.5040826 -0.41395143 -0.5494464
C 0.09049478 1.2006553 0.77955914
N -0.78074294 -1.6470088 -0.56127745
C 0.31034127 -0.884599 -0.36627522
N 0.73253477 -0.051056348 0.73058724
H -1.466475 2.2519064 0.7530785
H -0.90537524 -2.0300243 -1.4880384
H 2.5430415 -0.52609694 -0.79736596
H 0.7445908 2.0118208 1.1163338
H -1.6159599 -1.2054256 -0.19077276
