9

O -1.304096 -0.8241425 -0.38153335
C 0.6148047 1.2019342 1.82292
C -0.38643295 0.2616069 -0.44794092
C -0.03507329 -1.0701079 -0.95770824
C 0.15566996 0.7590567 0.8029692
H -0.029891882 -1.2439152 -2.0321612
H 0.6288994 -1.6996272 -0.36846513
H 1.0187836 1.5859396 2.7328162
H -0.6626635 1.0292554 -1.1708965
