9

O -0.95908416 1.22012727 -0.34189453
C 1.76047015 -0.26105296 1.40650781
C 0.98709893 -0.00847167 0.52031118
C 0.08262605 0.27953258 -0.57745489
C -1.32626756 -0.13284197 -0.53566169
H 0.55674110 0.38144812 -1.55371328
H 2.43969616 -0.48058972 2.19961930
H -1.69745547 -0.64520484 0.34981308
H -1.84382490 -0.35294701 -1.46752711
