11

C 0.8255225 1.4232186 0.21518813
N -0.9237965 -1.6084638 -0.24646355
C -1.9812745 -0.77789444 0.19374119
N -0.046063907 0.27620605 0.08426052
C 0.23485574 -0.94739515 -0.30398023
N -1.3833305 0.4002284 0.39144483
H -1.0416338 -2.5801797 -0.48607877
H 0.47872955 2.2105215 -0.45517096
H 1.207907 -1.3131381 -0.59828526
H 0.7820925 1.7800618 1.2448782
H 1.8469923 1.1368345 -0.03953409
