11

C 1.01945238 1.05723117 -0.77221993
N -0.00332244 0.26326790 -0.12724188
C 0.08640669 -0.92407206 0.42865301
N -1.14328677 -1.19835352 0.87071479
C -2.04966061 -0.14959167 0.58704166
N -1.28893859 0.75095991 -0.04137384
H 0.73638917 1.22306760 -1.81234781
H 1.09223348 2.01729621 -0.25990860
H 1.97471571 0.53252503 -0.72266938
H 0.98063198 -1.52602871 0.50091252
H -1.40462114 -2.04630183 1.34843949
