10

N 0.6022365 -0.81057316 1.5072601
C 0.012743359 0.1688072 0.7433417
O -0.4012245 1.2166563 1.1889937
N -0.10196026 -0.17453897 -0.6056549
C -0.63665944 0.674085 -1.5613877
O -0.7659101 0.3478521 -2.7149644
H 0.8272215 -0.5181692 2.44529
H 1.2489787 -1.4552495 1.0795234
H 0.13260615 -1.1016489 -0.93161935
H -0.91803193 1.6527791 -1.1507822
