12

C 0.4008945 -0.43362817 0.96670735
N 0.10304112 -1.213406 -0.22231945
C -0.31502798 0.88475364 0.6317753
N -0.16042131 0.9175653 -0.8125011
C -0.07553101 -0.3734483 -1.3138485
O -0.14396702 -0.70459664 -2.4759488
H 0.59279686 -2.076952 -0.40662616
H -0.6699515 1.5843105 -1.3727616
H 0.0068832105 -0.90108174 1.8718486
H 0.15352549 1.7454386 1.1141483
H -1.3702261 0.8369435 0.9301504
H 1.4779838 -0.2658987 1.0893762
