12

C -0.04850875 0.87637521 0.71469221
N -0.02097400 -1.20962505 -0.26223064
C 0.69358037 -0.46891832 0.76310854
N -0.39844159 0.94210510 -0.69390309
C -0.53494692 -0.33742074 -1.21299038
O -1.00966497 -0.63665837 -2.28533335
H -0.93796496 0.84926402 1.35725678
H -1.04641678 1.63645775 -1.03458558
H 0.58624947 1.71149857 1.01908607
H 0.61882085 -0.94871684 1.74149641
H 1.75230547 -0.33337146 0.51006627
H 0.34596179 -2.08098994 -0.61666357
