11

O -1.5012834 -1.0440326 0.38042173
C -0.16784067 -0.77212095 0.06632176
C 0.028513743 0.23316498 -1.0928183
N 0.7639211 1.0773069 -0.14765868
C 0.5053456 0.30388862 0.9472033
O 0.6814193 0.44510514 2.1317003
H -1.5652765 -1.1255642 1.3410565
H 0.43434426 -1.6846303 -0.037964184
H 0.6250236 -0.11477127 -1.9382286
H -0.91804117 0.660483 -1.4314322
H 1.1138743 2.0211706 -0.21860152
