11

O 0.6283847 -2.162264 -0.58888626
C -0.58565694 0.9585933 -0.20552377
C 0.8285244 0.644907 0.22588241
N -0.963769 -0.40784475 -0.60695344
C 0.15032427 -1.1275387 -0.23857135
O 0.4323408 -0.61188346 1.1861943
H -0.55858654 1.639351 -1.0610633
H 1.3007594 1.3457094 0.92508715
H -1.2191455 -0.5619792 -1.5724248
H -1.2886558 1.3420423 0.54629594
H 1.2754805 -1.0590925 1.3899632
