12

N -0.88305765 1.5516863 0.24760388
C -0.08522725 -0.8518229 0.93293333
C 0.44141388 -0.29861864 -0.25416592
N -1.0078261 -0.2916279 1.6941571
C -0.059555754 0.93441665 -0.62102693
N 1.433792 -0.9537214 -0.972494
C -1.3954381 0.9696007 1.3850172
H 0.26749468 -1.8362292 1.2455547
H 1.4770644 -1.9483343 -0.82499236
H 1.5054928 -0.6956328 -1.945181
H -1.9087465 1.9718673 0.6515923
H 0.21459363 1.4484162 -1.5389991
