12

N -0.91479610 -0.08476348 1.69149125
C 1.05012448 -0.76241042 0.33266830
C -0.14924302 -0.09884474 0.52694962
N -0.57599010 0.65638247 -0.50702411
C 0.13142501 0.69368750 -1.68509318
N 1.77887173 -0.66062714 -0.77048430
C 1.34350962 0.03545462 -1.89610237
H -1.88828206 -0.32579045 1.55298723
H -0.51394790 -0.64873351 2.42792311
H -1.34580543 1.29657919 -0.35377172
H -0.34503934 1.29385670 -2.45537302
H 1.42917322 -1.39479121 1.13582916
