11

O -1.16152001 -0.81542809 1.72103449
C 0.52138417 -0.43729184 -1.32236381
C -0.13268544 0.91438255 0.67351637
N 0.23642209 0.80547444 -0.62458335
C 0.03060553 -0.29039220 1.56696287
O -0.44342407 1.95747590 1.22791920
H -1.09797430 -1.52440680 2.37637054
H -0.34380162 -0.80240273 -1.88766878
H 0.22197106 1.67357772 -1.14318287
H 1.36067164 -0.29175659 -2.00622398
H 0.80835116 -1.18923236 -0.58178090
