11

N -1.0647162 -0.99139893 0.718348
C 1.9137717 0.65327597 0.32678592
C -0.7410131 0.7834 -0.84430116
O 2.7188878 1.4690757 0.53720486
C -0.14235908 -0.5056137 -0.28355783
O -0.15540996 1.8331367 -0.8500108
N 1.2126907 -0.32922006 0.16517983
H -0.13548318 -1.2435343 -1.0961382
H -1.775167 0.66641235 -1.219461
H -0.8096676 -1.9323947 1.002261
H -1.0215341 -0.4031389 1.5436893
