9

O 1.005494 -0.94828534 -1.4997034
C 0.30968508 -0.3520839 -0.5202764
C -0.94079316 -0.62236613 -0.076196775
O -1.1975182 0.2674341 0.9410489
C -0.09028786 1.0066664 1.0356584
N 0.84601605 0.69436795 0.19837448
H 1.8610963 -0.49967942 -1.5450603
H -1.7170637 -1.3282785 -0.32173023
H -0.076628454 1.7822248 1.7878852
