9

O 0.61708334 0.36279318 -2.14027834
C 0.21562713 0.12468944 -1.04620727
C -1.08044857 -0.65667745 0.55421773
O -0.95175398 -0.58892848 -0.80724492
C 0.75671552 0.46532983 0.33353879
N -0.19501968 -0.10891712 1.27314477
H 1.75729393 0.04257538 0.47138975
H -1.95729451 -1.19117177 0.90382925
H 0.83779688 1.55030696 0.45761012
