11

O -1.68566629 -1.93445683 -1.39356911
C 0.68032482 1.03450703 0.15631068
C -0.15775951 0.08726944 0.97450150
O -1.21615606 -0.51036953 0.25336594
C -0.87619832 -1.42927177 -0.67496650
N 0.58266322 1.06991922 -1.10358824
H 1.21963193 1.75594085 -1.50315030
H 0.50861126 -0.66890084 1.41449819
H -0.62902085 0.63086523 1.79866668
H 1.37217464 1.64793945 0.74875740
H 0.20139515 -1.68344225 -0.67082619
