10

N -0.20452018 0.91616875 -0.6496805
C -0.4003923 -1.2783854 -0.24824487
C -0.80659455 -0.418948 -1.2218945
C 0.36733145 -0.6598213 0.8362022
C 0.49383304 0.6502786 0.6125558
H -0.98386145 1.5676432 -0.5483726
H 0.9764371 1.4447083 1.1661686
H 0.40420526 1.2974433 -1.3747662
H -0.6219693 -2.3396125 -0.26826394
H 0.77553093 -1.1794752 1.696296
