10

N -1.0491766 0.2625744 0.36269733
C -0.65925163 -0.9677816 -0.09907558
C 0.6689563 -0.88588184 -0.43931442
C 1.0934993 0.4458821 -0.17185125
C 0.010306642 1.1302515 0.32211897
H -1.9743298 0.49421299 0.6826449
H -1.3559741 -1.7919277 -0.14456786
H 1.2757033 -1.6880928 -0.8349404
H 2.085482 0.84613097 -0.32570612
H -0.09521559 2.1546319 0.6479943
