10

N 1.0626451 -0.24067727 0.29437858
C -1.1377692 -0.32324466 0.5181397
C -0.032848038 -0.8316641 1.1789225
C 0.54624397 0.6367973 -0.6613133
C -0.8070312 0.5903792 -0.5320696
H 0.8401382 -1.3849994 0.23365909
H 1.9991262 -0.16806316 0.67187846
H 1.1878046 1.1641799 -1.3526537
H -1.5073518 1.1403399 -1.1495255
H -2.150957 -0.5830476 0.7985838
