10

O -0.35090241 -1.48027407 -0.51465413
C 0.30857823 -0.28415019 -0.26344844
C -0.56438111 0.90862333 -0.62410058
O -1.65765760 0.74283870 -1.10870356
C 0.70330770 -0.15933897 1.20536786
O 1.36375527 0.75978570 1.61621947
H -1.20909266 -1.23940480 -0.90348597
H 0.31206403 -0.96798104 1.85557627
H 1.23560573 -0.18639606 -0.85310682
H -0.14127742 1.90629747 -0.40966417
