11

N 1.6165559 -1.5992599 0.6440452
C 0.7561779 -0.7351974 0.3044343
C 0.85572666 0.67099625 0.7395944
N 0.021827994 1.587551 0.42851213
C -1.0541936 1.2055124 -0.3781413
C -1.2022483 -0.049623884 -0.80404913
O -0.3253009 -1.0429946 -0.48935467
H 1.3949825 -2.5134563 0.25729883
H 1.7111719 0.9091533 1.368351
H -1.7645409 1.9791815 -0.64190656
H -2.010159 -0.41186222 -1.4287841
