11

N -2.1941397 -0.44027796 0.09165987
C -0.9666081 -0.16979772 0.18372011
C 1.1064444 0.68246585 -0.7986013
N 1.1117699 -0.28725183 1.2124189
C 1.4304258 0.8429524 0.6871142
C -0.048294727 -0.8527781 1.1217798
O -0.3459031 0.71374595 -0.6656109
H 1.4339685 -0.25759208 -1.256967
H -0.28201905 -1.8281564 1.5315711
H 1.3672076 1.5408089 -1.4108987
H -2.6128519 0.05588088 -0.69618607
