11

N 1.00814910 -0.48290804 1.24054054
C 0.68156223 -1.21374332 0.22417144
C 0.32527363 0.50931998 1.69221838
N -1.08075720 -1.35096299 -1.42244784
C 0.15163919 1.43713633 0.48927268
C -0.48619886 -0.69730885 -0.52372368
O -0.80478798 0.60752223 -0.23527246
H 1.29510187 -2.01528197 -0.16955907
H 1.05157586 1.60751707 -0.11252832
H -0.36715600 2.36572755 0.70888196
H -1.77440169 -0.76701786 -1.89155353
