11

N 0.360012 1.2061894 0.6346516
C -0.29055426 1.1937066 -1.4389136
C 0.07671578 -0.03330546 0.25325802
C -0.3496279 -0.15258834 -1.0575068
N 0.12817569 1.9807185 -0.43331444
N 0.27080533 -1.043161 1.3135642
H 0.59627277 -0.48949274 2.1144583
H -0.6434007 -1.0209265 -1.6281105
H 0.9786165 -1.7401221 1.073456
H -0.5334965 1.6231432 -2.402924
H -0.59351856 -1.5241617 1.5713814
