11

O -0.1976052 0.27362895 1.136401
C 0.13343422 1.4040847 0.33594257
C -0.18449338 -0.82386434 0.32771724
N -0.33125836 -2.0209482 0.67634934
C 0.054310948 -0.3327952 -1.0829828
O -0.15380104 1.0630913 -0.9904074
H 1.0797843 -0.5746753 -1.3970685
H -0.4568056 -2.1032658 1.6826767
H -0.49002483 2.246696 0.63407284
H 1.2018011 1.6300621 0.46959704
H -0.65534216 -0.76201385 -1.7922981
