11

O 0.41462384 0.95417534 -1.02584648
C -0.49167389 -0.70322229 0.28969664
C 0.44682616 1.34209127 0.31820303
N -1.06211114 -1.77147596 0.62064906
C 0.22468727 -0.44733799 -1.01782044
O -0.38758553 0.43537455 1.03225688
H 1.18019752 -0.99086430 -1.03600586
H 1.46569698 1.28161845 0.72879089
H -1.45393354 -1.70988213 1.55761996
H 0.04103605 2.34912125 0.41202022
H -0.37776328 -0.73959875 -1.87956365
