11

O -1.3519323 -0.9113727 0.54945546
C -0.67044175 -0.2749024 -0.31706482
C 0.78894186 -0.7480361 -0.62353474
N -1.0689285 0.7861734 -1.0090232
C 0.40353838 0.5797107 1.0253063
O 1.4002666 -0.20954204 0.56999016
H 0.9056547 -1.8347738 -0.6195725
H 1.2095829 -0.27197763 -1.5101573
H -2.0589128 0.9359363 -0.8043775
H 0.4186792 1.6223938 0.72969466
H 0.023551809 0.3263904 2.0092835
