12

O 1.72102385 1.20911553 -0.90589202
C 0.53735585 0.96985965 -0.93428417
C -0.19888759 0.52161433 0.31191566
O 0.72318342 0.33163839 1.35279782
C -0.92178427 -0.80063621 0.06418926
O 0.01300846 -1.80505524 -0.24180509
H -0.06473491 1.09147676 -1.85555390
H -0.93648081 1.30435398 0.56047294
H 1.56803112 0.68538259 1.02457468
H -1.51759061 -1.04432324 0.95491105
H -1.60587825 -0.71135988 -0.78811975
H 0.68275356 -1.75206695 0.45679318
