10

O -0.79415864 -1.7344717 -0.74928534
C -0.2999084 -0.58784574 -0.23508736
C 0.8644999 0.123599075 -0.42059454
C 0.7113085 1.2351065 0.44522628
N -0.43650106 1.212638 1.1026683
N -1.0405843 0.0852051 0.66961306
H -0.15135218 -2.098612 -1.369552
H 1.6910857 -0.11521027 -1.0735946
H 1.4027122 2.0507004 0.6077134
H -1.947102 -0.1711093 1.022893
