10

O 1.30801530 -0.82554261 -0.68539124
C -0.38106783 0.69422706 -1.36821810
C 0.45490198 0.20397001 -0.24726596
C -0.44428451 -0.38161716 0.82061663
N -0.64096156 0.26557369 1.88907122
N -1.00217383 1.06415993 -2.26781128
H -0.86205987 -1.36335985 0.56699419
H 1.86474577 -0.48511478 -1.39621057
H 0.99154216 1.05824097 0.18714282
H -1.28865788 -0.23053719 2.50107251
