10

O 1.7647487 -0.12793615 0.5840449
C -0.100662045 0.4934563 -0.8609856
C -0.47581822 -0.47037616 1.4050354
C 0.44591153 0.04770155 0.399847
N -1.4655688 -0.34121844 2.098316
N -1.3617711 0.44884425 -1.0780668
H -0.07157755 -1.5148311 1.2232231
H 2.2109694 -0.34056216 -0.24612905
H -1.5870719 0.8935503 -1.9684377
H 0.64083964 0.9113714 -1.5568472
