12

C 1.29025937 0.96609969 0.71775175
C -0.69917349 -1.00330076 0.63905435
C -0.45909596 -0.16859542 -0.38081872
O 0.47591141 0.81139622 -0.42658477
N -1.17612012 -0.14516399 -1.57178457
H 1.85445370 0.05171028 0.93435306
H 1.98275840 1.77587743 0.48503471
H -0.17250843 -0.93308407 1.58058309
H -1.46029106 -1.76564445 0.53795821
H -0.62500093 0.15795986 -2.36234334
H -1.70408925 -0.98623950 -1.74904837
H 0.69289591 1.23898465 1.59584488
