10

C 1.1337942 0.38361597 0.8362538
O 0.46643406 0.77549654 1.7581733
C 0.6128054 -0.51552236 -0.26373762
O -0.74857324 -0.84504753 -0.05397939
C -1.6214262 0.11366068 -0.41039583
O -1.3323416 1.1553763 -0.9334479
H 1.1653564 -1.4607695 -0.25624213
H -2.6372304 -0.23082416 -0.17185088
H 2.2068486 0.64918596 0.7278164
H 0.75433254 -0.025171863 -1.23259
