10

C -1.48591646 0.57502846 -0.52130686
O -0.61011564 -0.38360400 -0.87062496
C 0.71387480 -0.17237172 -0.41415221
O -1.21090907 1.58441291 0.06847172
C 0.85799300 -0.55567449 1.04261446
O -0.04467293 -0.97109903 1.72194661
H -2.48087109 0.29313140 -0.89283210
H 1.35859087 -0.81153270 -1.02625955
H 1.01418170 0.87224974 -0.54730718
H 1.88784481 -0.43054056 1.43945019
