11

C -1.02003497 0.87349334 -1.49390491
C 0.13027674 -0.11385608 0.05461144
N -0.78634123 0.66871085 0.59211086
C 1.13942028 -0.97146544 0.72608157
C -1.59636893 1.36099382 -0.36590630
O 0.04333350 -0.03699110 -1.24044429
H 1.01795453 -0.91698391 1.81102826
H 1.02357789 -2.01053958 0.40654635
H -1.19442590 1.02590173 -2.54716279
H 2.14982691 -0.64421680 0.46661693
H -0.90721882 0.76495306 1.59042263
