11

C -0.5318637 -1.0802851 -1.410851
C -0.018933486 -0.24908793 -0.28686002
N 1.157811 -0.25875676 0.247557
C 1.090424 0.69493103 1.2540042
C -0.14413628 1.2353929 1.2669276
O -0.87201065 0.63778985 0.27901247
H -1.4234304 -1.6371398 -1.1094604
H 0.2463516 -1.7854862 -1.7086469
H -0.798523 -0.46112344 -2.2735822
H 1.9381522 0.91450465 1.8886719
H -0.6438413 1.9892607 1.8532271
