11

N -0.49841696 0.37637497 -1.87332879
C 0.39039270 0.29957231 0.23357543
C 0.60863649 0.69011291 -1.23284993
N 1.49241652 -0.32840721 0.92109930
N -1.36518555 -0.29726355 -0.96728723
C -0.91139165 -0.42852230 0.23075360
H -2.25365148 -0.62296056 -1.32237668
H 0.11385165 1.30292649 0.63127285
H 2.34711688 -0.02038509 0.46898445
H 1.53797654 -0.04539808 1.89090990
H -1.46174535 -0.92605010 1.01924713
