11

N 0.48366547 0.8242044 -1.7280605
C 0.0148892235 0.30574983 0.4505584
C -0.57575756 -0.74027115 -0.43360713
N -0.31244183 -0.35186645 -1.6328845
N 0.7122277 -0.14807644 1.6292291
C 0.7814332 1.2234793 -0.50899285
H 0.0937052 -0.21633041 2.4263952
H -0.6033442 -0.7924924 -2.4947217
H -1.16426 -1.6222185 -0.21456629
H 1.4217612 0.54391974 1.8471779
H -0.85187817 0.97390175 0.6594725
