11

N -1.2440223 0.55178195 1.1065627
C 0.039469738 0.114938445 1.2804533
C 0.4075948 -0.09723582 -0.11091453
N -1.7017015 0.7085702 -0.1604277
N 1.7200851 -0.27016598 -0.57552594
C -0.71875453 0.3324332 -0.9255536
H -1.8855127 0.7648395 1.8533318
H -0.8006722 0.3646839 -2.0044608
H 2.3633344 -0.36335617 0.20064667
H 1.8281329 -1.0399398 -1.2229987
H -0.007953766 -1.0665494 0.5588867
