11

C -0.1744167 -0.035111226 -0.11402965
C -1.3181127 -0.794355 -0.6841056
C 1.1824499 1.7231476 -0.002791888
N 1.4192564 0.9322307 1.0894762
C 0.59275657 -0.19057019 0.9865648
O 0.22260359 1.0955399 -0.7558721
H -1.1063732 -1.0852438 -1.7171036
H 0.59087497 -0.9756608 1.728586
H -2.2169185 -0.17227416 -0.6849658
H -1.5048587 -1.6916496 -0.09049413
H 2.3127382 1.1939464 0.24473591
