10

N 0.51102281 -1.51180918 -0.79631109
C 0.08264385 -0.37671127 -0.36204578
N -0.21072774 -0.57498605 -1.76881073
O 0.88773512 -0.48299214 2.33075572
C -0.16085468 0.62268190 0.51879020
C 0.29303468 0.47946761 1.88696125
H 0.05240424 1.34561244 2.54096258
H -1.13478934 -0.87010742 -2.06140626
H -0.68776768 1.50885930 0.18925695
H 0.36729863 -0.14001543 -2.47815286
