10

N -0.31942734 -1.0034839 -1.5119973
C -0.07667314 -0.44131774 -0.26897117
N -0.036743224 -1.1725479 0.8155382
O 0.3126061 -0.30474097 1.8397924
C 0.45371455 0.9224123 1.3357118
C 0.22561303 0.93013555 0.0034429447
H -0.8867572 -0.42909637 -2.1173549
H -0.6727324 -1.9494994 -1.4495453
H 0.7259271 1.6928905 2.0435953
H 0.27447242 1.7552477 -0.690212
