10

N -1.4863807 0.059633482 1.1361438
C 0.81816673 0.11199432 -0.028473455
N -1.7212082 -0.33651078 -0.3240763
O 0.91369385 -0.4312317 -2.3308754
C -0.52188945 -0.062542886 0.059483707
C 1.4721214 -0.10000881 -1.3035483
H 2.571242 0.06570335 -1.2861989
H 1.3775859 0.40599608 0.85024893
H -1.8339479 0.9708682 1.4106042
H -1.5893837 -0.6839012 1.8166915
