10

O -0.1890011 -0.546274 -2.2973833
C -0.14789237 -0.19049738 -1.0146818
N -0.99411815 0.58343637 -0.45803982
C -0.5370886 0.65830386 0.9159696
C 0.6882988 -0.21106464 0.93256956
N 0.914918 -0.71613467 -0.2234679
H 0.5579532 -1.1425487 -2.4523096
H -1.3050364 0.29048246 1.6057335
H -0.31291553 1.6923532 1.203331
H 1.3248819 -0.41805655 1.7882793
