17

C -0.014735431 0.06437667 0.28378347
N 0.6226679 0.16352266 -0.84976
C 2.0339837 1.3327136 0.13686548
O 0.510901 0.7034539 1.2495551
N -1.1459081 -0.673291 0.4796756
C -1.9030786 -0.55032456 1.7096306
C 0.30574557 -0.6086597 -2.024185
H 1.6273177 2.260032 -0.24554493
H -2.5700371 -1.4088185 1.8076634
H 1.1495967 -0.55784243 -2.7234056
H -2.4942338 0.37330773 1.7543585
H -1.6594002 -0.9109325 -0.35272223
H 2.4548829 1.4152406 1.13542
H 2.7211165 0.84353906 -0.54805964
H 0.1395681 -1.6716833 -1.797564
H -0.5774262 -0.22739111 -2.5617115
H -1.2009608 -0.547243 2.546
