17

C -2.4818125 -0.92543256 0.5942142
N -1.3238196 -0.42122746 -0.1200149
C -0.2662856 0.07178397 0.62614864
O -0.3497566 0.21718012 1.839131
N 0.8535799 0.42319894 -0.092518374
C 2.0660164 0.75992614 0.6257315
C 0.93417686 0.34744918 -1.537932
H -2.2654474 -1.8313773 1.176371
H -2.8327465 -0.15802465 1.2876071
H -3.2760432 -1.1411192 -0.12442469
H -1.0850986 -0.9330193 -0.954607
H 2.852999 0.0099025415 0.46070492
H 1.833325 0.8039121 1.6896105
H 2.4495656 1.7344453 0.30038965
H -0.019498387 0.6403632 -1.9867126
H 1.6953856 1.054054 -1.8829442
H 1.2154605 -0.652015 -1.9007549
