17

C -0.7589302 0.18996587 -0.15621102
N 0.09764518 -0.86869866 -0.17667912
C -0.27689993 -2.042984 -0.94210714
O -1.774417 0.2650814 -0.8209028
N -0.4165136 1.2468966 0.72070795
C 1.3524402 -0.9195142 0.5561957
C -0.6590486 2.9417083 0.2080366
H -1.2343445 -1.843815 -1.4218116
H -0.37176993 -2.9161263 -0.28469628
H 0.34058353 1.1239692 1.37795
H -1.0601553 2.7241507 -0.7847044
H 1.2145084 -1.237166 1.5988545
H 2.0109444 -1.6383948 0.062535144
H 0.47669408 -2.2577293 -1.7077332
H 0.39132586 3.238233 0.10948534
H -1.1933508 1.9445589 1.1216862
H 1.861288 0.04986427 0.5393937
