10

O 0.42209044 0.5001243 -1.509599
C -0.36679903 0.83315927 -0.56078035
O 0.5214485 -2.0710423 -1.4679229
C -0.072730206 -0.7070206 0.49695057
C 0.19946422 0.7657613 0.7862555
C 0.38398564 -1.1872498 -0.72307247
H -1.4169407 1.0836362 -0.7344809
H -0.47082403 -1.4063966 1.225334
H 1.2405255 1.0698308 0.89293176
H -0.4402204 1.1191981 1.5943838
