10

O 0.43805575 -1.94763315 -1.10903802
C -0.58658503 0.97481602 0.79895171
C 0.29176803 -0.80393687 -0.60134058
C 1.11799206 -0.30687238 -1.61293381
N -0.49721788 -0.41761795 0.39290037
H -1.62254744 1.32418961 0.74542125
H -1.12278514 -1.11010656 0.77797619
H -0.20399137 1.11980504 1.81399852
H 2.17041546 -0.39794542 -1.30625795
H 0.01489548 1.56530154 0.10032206
