9

N -1.0838339 -0.8323493 2.2762005
C 1.5579172 -0.01008485 -0.33648768
O 1.4266038 0.91933775 0.53884387
C -0.94889164 -0.5415952 1.1668863
O 0.44904897 -0.60259736 -0.7892054
C -0.77726144 -0.21048096 -0.23795517
N -1.7181166 0.28042063 -0.9114967
H -1.4311445 0.41803372 -1.882187
H 2.525678 0.57931554 0.17540099
