9

N -0.69446504 -1.7281429 0.72122186
C -0.039545182 -0.75819343 0.26404455
O -0.46048614 -0.010856471 -0.81786835
C -0.31061465 1.3511231 -0.7834523
O 0.06483931 1.9778556 0.15843774
C 1.2846144 -0.46721622 0.7903573
N 2.3514867 -0.28878587 1.194149
H -1.586602 -1.8216907 0.23628952
H -0.60922724 1.745907 -1.7631793
