9

N 0.26686856 2.2612624 -1.2912774
C 0.3033163 0.47779027 0.61077195
O -0.8458408 -0.2904363 0.74766415
C -1.2853966 -1.1581395 -0.18000989
O -0.3865782 -1.1561959 -1.1572772
C 0.28528285 1.4584619 -0.46140724
N 1.2606143 0.44879812 1.4222822
H 1.1000988 -0.26164508 2.1372385
H -0.6983653 -1.7798964 -1.827985
