11

C -2.0935438 -0.40199524 0.33038267
C 1.7062309 0.23773688 -0.082955986
C 0.3624316 -0.3925463 -0.36511043
N -2.0784962 0.3275955 -0.6782419
C -0.83661145 0.31540063 0.20116785
O 0.22483297 -1.412936 -1.0022258
H 1.7468542 1.2409569 -0.5206061
H -0.6558917 1.2213154 0.7789115
H 1.8568265 0.34893748 0.9955065
H -2.7338986 -1.1056339 0.84790385
H 2.5012655 -0.37883148 -0.5047321
