11

C -2.07553541 -0.49803549 0.31271696
C 0.35779287 -0.31637031 -0.43663366
C -0.83534375 0.25808064 0.27469979
N -2.10326609 0.39338635 -0.55587426
C 1.69869827 0.28550646 -0.08680276
O 0.21820990 -1.21557997 -1.23537210
H -2.68801578 -1.29355562 0.71892544
H 1.70917389 1.34941647 -0.34684897
H 2.49089601 -0.23243006 -0.62929345
H -0.65253154 1.05561586 0.99417612
H 1.87992170 0.21396570 0.99030723
