9

N -0.9953009 -2.1365182 1.2223393
C -0.5335848 -1.0947785 1.0357357
O 1.0449442 0.24138783 -0.19031954
C 0.6586208 0.003842971 -1.4505936
O -0.5882518 -0.18131068 -1.6786588
C 0.070570126 0.20820679 0.8131636
N -0.20232587 1.185314 1.5566323
H 0.21836555 -0.23752579 -2.5824075
H 0.32696268 2.0113816 1.2741082
