9

N -0.6113434 1.6834333 0.7610133
C -1.2799656 0.14174394 -0.8979313
O -0.01803096 -0.5589483 1.0188489
C 0.9915753 -1.3044931 0.55730766
O 1.3568689 -0.7716868 -0.6046926
C -0.5833718 0.50855714 0.32470313
N -1.8591692 -0.15373045 -1.8527473
H -0.09089714 1.7538881 1.635931
H 2.0943344 -1.2987639 -0.9424328
