10

C 0.2578571 -0.6252114 -1.4346821
N 0.11362448 -0.06925734 -0.104296654
N -1.0271693 0.4114059 0.36216483
C -0.6616774 0.7850348 1.5762877
N 0.6395771 0.5400876 1.827827
N 1.1156094 -0.0031675242 0.7449595
H -0.38602817 -1.4995877 -1.5371463
H 1.3032496 -0.90639514 -1.552377
H -0.01950692 0.12904647 -2.172494
H -1.3355358 1.238044 2.2897568
