10

C 0.02694866 1.05933998 -0.71135285
N 0.13293794 0.00044994 0.10534180
N 1.08495383 1.81752597 -0.55291390
C -0.73546332 -1.14499842 0.30249542
N 1.84191682 1.19623649 0.37708289
N 1.28912999 0.11152376 0.77596488
H -0.55507100 -1.89377934 -0.47154714
H -0.50618595 -1.56602137 1.28037373
H -0.80099011 1.24389394 -1.37875501
H -1.77817676 -0.82417130 0.27330997
