10

C -0.57782656 0.43790638 -1.0503832
N 0.70845747 -1.2260343 -0.520906
N 0.41315925 -1.2952819 -1.765609
C 0.20295371 0.22516215 1.3607141
N -0.38950962 -0.27403152 -2.1352818
N 0.09680906 -0.13302967 -0.0412396
H 1.1076852 -0.23927993 1.7503664
H 0.27285776 1.3099191 1.4579197
H -0.6653517 -0.14227474 1.9115244
H -1.1692346 1.3369446 -0.96710515
