15

N -1.3472618 -0.5246903 1.297464
C -0.016228464 -0.121547915 -1.4981971
O -0.7524882 0.7392096 -0.6465778
N 0.9165196 -0.14482936 0.65151346
C 1.3149087 -0.26631713 -0.7547208
C -0.4257671 0.40638584 0.70026886
O -0.5097923 1.5588211 1.4626566
H 1.8155596 -1.2197244 -0.9573203
H 0.9405898 -1.0238676 1.1569718
H -2.133328 -0.016325893 1.6872332
H -0.5231346 -1.0939803 -1.6066245
H -1.6902095 -1.1754956 0.59892565
H 1.9981345 0.5466772 -1.0242305
H 0.0629067 0.34697148 -2.4816544
H 0.3495911 1.9887133 1.4142917
