15

N -0.83380020 -1.47748079 0.94639047
C -0.32068299 -0.13610192 0.84583820
O -0.47138743 0.41872803 2.10514525
N 1.05686022 -0.13621539 0.38722772
C 1.11428413 0.56060119 -0.90200349
C -0.35613158 0.60819576 -1.32774246
O -1.03444849 0.67334042 -0.08521291
H -1.59342933 -1.49724019 1.61782745
H -1.18267994 -1.78787033 0.04580302
H 1.75070619 0.03545810 -1.62302707
H 1.50975379 1.57321237 -0.76556632
H 1.40115724 -1.08948700 0.34838794
H -0.64239579 -0.29894469 -1.88405539
H -0.62836987 1.48544999 -1.91873518
H 0.23056361 1.06835451 2.20972274
