10

C 0.38430583 -0.33157614 -1.201694
C -0.100738265 -0.99686235 0.52169913
N 0.50648403 -0.29664722 1.5560985
C -0.35844138 0.62046295 -0.36763856
N 0.70939034 -1.4035112 -0.5368453
C 0.14753284 0.8239671 0.99771583
H 0.65057504 -0.1679058 -2.2453244
H -1.0490439 1.3317056 -0.8197908
H -1.1229037 -1.3718266 0.6065046
H 0.23283924 1.7921935 1.4892751
