10

C 0.819271 -0.09663555 0.7859875
C 0.4467294 1.1361831 0.26227522
N -0.50984603 1.2606345 -0.6568215
C -1.0931653 0.12702172 -1.0476826
N -0.8223686 -1.1044003 -0.62143517
C 0.1389698 -1.2039953 0.29825452
H 1.5987316 -0.18774317 1.5340255
H 0.93016195 2.0552516 0.58967346
H -1.8763872 0.22084045 -1.7971809
H 0.36790344 -2.2071571 0.6529041
