10

O 0.38310102 -0.14953732 -1.2432811
C -0.026533587 1.1502569 -1.0769674
N 0.5853529 -2.1724937 0.034515183
C 0.07231909 -1.2532755 1.1809764
C 0.32813737 -0.9746073 -0.19370942
N -0.60632765 1.5690427 -0.04750341
H -0.94430125 -1.4252923 1.5312518
H 0.8017578 -0.9919152 1.9466997
H -0.8357485 2.554097 -0.14586583
H 0.24224272 1.6937248 -1.986116
