10

O 0.67033505 -2.9025812 1.3154731
C 0.150991 -2.0611048 0.6343139
C -0.053075176 2.018768 -1.3244677
N -0.75034416 0.17337607 0.25488663
O 0.4395061 -0.24487029 2.1931705
C -0.37843457 1.0705125 -0.48791364
C 0.022634188 -0.6155831 1.1370043
H 0.18467624 1.7711262 -2.3539515
H -0.26492652 -2.260704 -0.37281603
H -0.02136217 3.0510607 -0.9956996
