10

O 0.046802655 2.2914414 -0.31299463
C 0.50273323 -1.7177929 0.100502506
C 0.7331186 -0.4091724 -0.11942061
N -1.4429612 -0.7204008 0.43628326
O -0.7913167 -1.9113603 0.43180144
C -0.554836 0.1861903 0.114479035
C -1.0227934 1.5964606 0.046743784
H -0.22484879 3.2138205 -0.36727658
H 1.6486559 0.08420613 -0.40223238
H 1.1054454 -2.613393 0.07211413
