11

C -1.7964218 0.47898299 -0.45997646
N -1.1718493 -0.1513374 0.514167
C 1.1541755 -0.67715114 0.9340382
C 0.1974839 0.580795 -1.0465122
N 0.116231546 -0.07810852 0.12048788
N -1.002271 0.9535497 -1.4511361
H 1.13054 0.76536167 -1.5613381
H 1.1515267 -0.21955083 1.9257252
H -2.8708975 0.60512227 -0.45577738
H 2.1192696 -0.5072009 0.45371312
H 0.9722128 -1.7504628 1.0266088
