11

N 1.8475469 -0.11349833 -1.437088
C 0.5987381 -0.13164128 -0.8672566
N -0.5471025 -0.24010222 -1.4424676
N -1.5003958 -0.065068126 -0.43324196
C -0.8352085 0.09336921 0.6562694
N -1.297571 0.19595015 1.9428201
O 0.5125667 0.069253266 0.47531056
H 2.5437648 -0.65416366 -0.9411795
H 1.8011965 -0.35204393 -2.4176028
H -0.82237476 0.891519 2.5024009
H -2.30116 0.30642587 1.9620359
