11

N -0.22984012 1.10516035 -0.56953222
C 0.59047346 0.01728124 -0.10620963
C -1.39339477 1.17730765 -0.91722824
O -2.47397310 1.44628450 -1.26956159
C -0.09192589 -1.33227605 -0.30141159
O -1.21371402 -1.45023092 -0.71523139
N 0.98809903 0.09916061 1.28047553
H 1.60385643 0.89321297 1.42448693
H 0.17495019 0.23422937 1.87074754
H 0.53143045 -2.19313245 0.00351175
H 1.51403834 0.00300249 -0.70004674
