11

N 0.7538237 1.012882 0.066278026
C 0.4496834 -0.393687 0.055076677
C -0.6248957 -0.73466504 -0.9716128
O -1.1991587 0.09402243 -1.6251171
C 0.2207825 1.9811072 -0.4420174
O -0.14874391 3.0183978 -0.8313955
N 0.017631989 -0.9357023 1.3228531
H 1.3573189 -0.9417267 -0.23070079
H -0.8496081 -1.8153508 -1.0367874
H -0.75058824 -0.38828942 1.6944072
H 0.77375424 -0.8969883 1.9990158
