11

N 0.94963247 1.1428618 1.1232171
C 0.120277464 0.3238688 0.35737476
C -1.2032206 0.12912096 0.31132352
O -1.5098534 -0.72901285 -0.7396733
C -0.3478497 -1.0896834 -1.3599355
O -0.27545795 -1.8054537 -2.3226793
N 0.6633534 -0.46945122 -0.65442586
H 1.6128745 0.6175825 1.6813219
H 0.4204327 1.76183 1.7227567
H -2.0260813 0.49900526 0.90166634
H 1.5958924 -0.38066837 -1.020946
