10

C 1.29401111 -0.14418976 0.35852410
C 0.06830573 0.53371680 -0.17541133
C -1.19424984 0.05397235 0.37984395
C -2.21577347 -0.35436842 0.85184296
N 0.20933613 0.24202010 -1.61588997
N 1.25980652 -0.37980860 -1.81418078
N 1.98043119 -0.66128571 -0.58074087
H 0.14435825 1.62400918 -0.06861493
H -3.13219630 -0.71348215 1.26413999
H 1.58597071 -0.20058362 1.40048685
