10

C 1.0552549 -0.08558086 -0.84681356
C 0.012393757 0.019064393 0.12647696
C 1.91813 -0.18985075 -1.6774392
C -1.365159 -0.22632268 0.02477455
N 0.15656269 0.7834814 1.350511
N -1.966645 0.3037086 1.0845572
N -1.0537639 0.8544235 1.8713557
H 0.45731264 -0.4482548 1.239035
H 2.688525 -0.2647801 -2.4155788
H -1.9026111 -0.74588877 -0.7568783
