10

O -0.19913289 -2.68721074 0.27526225
C -0.40864357 -1.98703247 -0.66638533
O -0.27071325 -0.62710197 -0.69100166
C 0.12578469 -0.01749099 0.45128041
C 0.30861209 1.32670319 0.50724702
C 0.06143344 2.12863899 -0.64832650
H -0.73908364 -2.31496802 -1.65951232
H 0.27160797 -0.69144634 1.29330926
H 0.63280741 1.68484093 1.48801839
H 0.21732766 3.18506737 -0.34989157
