11

C -1.1433241 -0.31266868 0.7074665
N -0.059736248 0.65939486 0.6377152
C 1.1034083 0.18441573 -0.083215035
C 0.8330462 -0.17089087 -1.4999896
N 0.55227965 -0.42049322 -2.5932531
H -1.5114132 -0.64011675 -0.2766767
H -1.9737985 0.12737104 1.2668308
H -0.7997587 -1.1965044 1.2574352
H -0.3898272 1.5213395 0.21811867
H 1.8856156 0.9502292 -0.05753921
H 1.5035082 -0.7020764 0.4231072
