11

C -0.30887008 0.862552 -0.7334037
N -0.364171 0.027413942 0.508224
C -0.7363113 -0.24164578 -1.5436883
C 0.84661496 -0.32195845 1.2390393
N 0.013410493 2.014117 -0.9820032
H -1.7681144 -0.3713647 -1.868706
H -0.0058350633 -0.9297014 -1.9599507
H 1.1027316 0.44357243 1.9804093
H 1.6727792 -0.39113307 0.52439934
H -1.1787738 0.19264652 1.0884447
H 0.7265393 -1.2844987 1.7472353
