11

C -1.15684800 -0.68884377 1.58062965
N -1.12251892 0.72750286 1.01412472
C -0.34434981 -0.14542566 0.53432319
C 0.90393873 0.73384478 -1.35208658
N 0.64373826 -0.29862145 -0.36588767
H 0.23676809 0.66133431 -2.21969001
H -2.03737220 -1.29200663 1.35247653
H -0.75564754 -0.82911208 2.58570848
H 0.75696042 1.70715516 -0.87763521
H 1.94081257 0.66249641 -1.69022385
H 0.93451840 -1.23832392 -0.56173931
