10

C 0.26904097 -0.32591885 0.88217074
C -0.06076274 -1.1601831 -0.32683748
N 0.285395 -0.80478776 -1.5433655
N 0.70103145 0.4536156 -1.5396186
C -0.73694146 0.5008892 0.48455226
C 0.31091118 1.0578669 -0.42957902
H 0.6769898 -0.6284364 1.8431902
H -0.55962044 -2.1096373 -0.16056293
H 0.6972397 2.043272 -0.18606447
H -1.5832833 0.9733196 0.9761149
