10

C 0.8190414 -0.095137745 0.7853076
C 0.44857335 1.1353018 0.25959596
N -0.50809693 1.2603055 -0.6597925
C -1.0918877 0.1279428 -1.0467842
N -0.8236808 -1.10394 -0.61816424
C 0.13652138 -1.2037892 0.2995199
H 1.5965133 -0.18713169 1.5347377
H 0.93306345 2.0537245 0.5850888
H -1.8747495 0.21824948 -1.7971547
H 0.36470214 -2.2055252 0.65764576
