10

C 0.80187694 0.96650763 0.61619031
C 0.03938101 1.80059259 -0.22148884
N -0.89719149 1.12820636 -1.00127060
C -1.01470543 -0.19607014 -0.92976737
N 0.65049359 -0.38278909 0.67328058
C -0.26263323 -0.99905058 -0.10510931
H 1.22502405 -0.94267456 1.29385825
H 1.56695297 1.36426765 1.27760856
H -1.76281755 -0.66349981 -1.57050981
H -0.34638076 -2.07548979 -0.03279169
