10

C 0.9075539 0.290376 1.3592325
C -0.026842492 0.8537939 -0.77900887
N 0.33292878 -0.93641007 1.3433318
C -0.6638894 -0.36378628 -0.7885167
N 0.6962749 1.1581948 0.31307927
C -0.4473103 -1.2089888 0.30927044
H -1.2985082 -0.6732997 -1.6111658
H -0.07893177 1.5843146 -1.5803237
H 1.5189878 1.4777987 1.1031599
H -0.9402634 -2.1819932 0.33094093
