11

N 0.9698311 0.46572796 -2.1408188
C 0.5795996 0.24268848 -0.95851225
C -0.79795486 -0.11921946 -0.6459568
C -1.1504661 -0.3400097 0.627397
C -0.12526944 -0.20914899 1.6420188
N 1.0951135 0.100804985 1.4183381
O 1.4601866 0.3328139 0.10112044
H 1.9613771 0.70244956 -2.1648798
H -1.4791335 -0.19007482 -1.4851196
H -2.1613092 -0.6110555 0.91596985
H -0.35197508 -0.37497643 2.690443
