11

O 1.253853 -0.65400076 -2.106645
C 0.62452906 -0.3459462 -1.115936
N 1.1421502 0.032481384 0.09893012
C 0.13012858 0.33669385 1.0822109
C -1.14057 0.09492239 0.30668685
C -0.86177534 -0.29169357 -0.9355987
H 2.1334424 0.085612535 0.25752234
H 0.19415577 1.3736852 1.4356557
H 0.19387755 -0.31851956 1.9602941
H -2.1199486 0.2298852 0.74955314
H -1.5498425 -0.5431206 -1.7326738
