11

O -0.5569867 2.3350577 0.4060941
C -0.39345738 0.04061436 1.2717396
N 0.2057835 0.48759764 -0.9759702
C -0.3593702 1.1496739 0.4714882
C 0.041232795 -1.1427004 0.57203186
C 0.392509 -0.9355433 -0.7087302
H 0.74470854 -1.5983316 -1.4825475
H -0.49660248 0.7009029 -1.6843853
H 0.08026202 -2.1186414 1.0426434
H -0.7115526 0.080759235 2.301914
H 1.0534735 1.0006111 -1.214278
