11

O -1.46407482 0.81917306 -1.76439267
C 1.10526989 -0.30161809 0.46798301
N 0.69889548 0.21695125 -0.83492122
C -1.22309264 -0.04027235 0.52554955
C -0.97919362 0.38934008 -0.75019483
C -0.01230688 -0.43198009 1.20329818
H 2.14195283 -0.51051877 0.67720787
H 1.06992782 1.13584412 -1.07266615
H -0.00654420 -0.80150332 2.22255217
H -2.21634389 -0.06865794 0.94590854
H 0.88551016 -0.40675808 -1.62032480
