11

N -1.3514428 1.1954931 0.17312011
C -0.65960866 0.24521996 0.85441935
O -1.135415 -0.5466367 1.6460414
C 0.8561109 0.36809376 0.6500613
C 1.0889982 -0.9127415 -0.6655034
O 1.122331 0.50901777 -0.7154815
H 1.162828 -1.15579 0.464232
H 0.17143548 -1.3248061 -1.079918
H -0.93218696 1.6760806 -0.606108
H -2.3440585 1.2742101 0.33234933
H 2.0210085 -1.3281411 -1.0532128
