11

O 1.420165 0.10757056 0.96977794
N -0.88031834 -0.18406007 -1.7758812
C 0.15552817 0.12436815 1.5955346
C -0.1726345 -0.07166811 -0.58352894
O -0.80070865 -0.3088357 0.64030904
C 1.11696 0.1853168 -0.37968934
H 1.9244323 0.37537262 -1.0688415
H -0.0814907 1.1500347 1.9144566
H -1.7499374 0.3366346 -1.755378
H 0.16145273 -0.56277555 2.4423566
H -1.0934484 -1.1519579 -1.9991158
