10

N -1.39331966 1.38942023 -0.22091314
C 1.01144343 -1.02826149 0.19020055
O 2.23527837 -1.22094626 0.66873722
N 0.44885945 0.11049861 0.23306351
C -0.86260297 0.14040550 -0.32354610
O -1.43645874 -0.80823285 -0.81627078
H -0.82784678 2.14522169 0.12644549
H 2.54689105 -0.36584971 1.00626153
H 0.56757598 -1.93089797 -0.22662390
H -2.28982010 1.56864199 -0.63735431
