9

O -1.80065106 1.06673338 -0.64550182
C 0.91851622 -0.91449450 -0.00372652
N 0.99977475 0.13814082 1.01851230
N 0.03247379 0.90903065 0.84941149
C -0.71600979 0.39896739 -0.27356756
N -0.24809894 -0.65695227 -0.80079561
H 1.83903239 -0.88780329 -0.59559217
H -1.90189510 1.82903755 -0.05480662
H 0.87685776 -1.88265976 0.50606668
