9

O -1.8556926 -1.0669003 -0.36312056
C -0.6927117 -0.45530382 -0.14550476
N 1.1551377 0.49348402 -0.59690225
N 0.05944947 0.009352492 -1.1610178
C 0.9352159 0.3730272 0.80123216
N -0.22453691 -0.24457957 1.0780319
H -1.9831618 -1.1107082 -1.3218272
H 0.85248256 1.4988643 0.20554353
H 1.753818 0.5027638 1.5035647
