9

O -1.9554859 -0.22216856 0.9610687
C 0.95792717 -0.23932949 -0.83969223
N -0.3479607 -0.7944991 -0.6181485
N 0.13654312 0.8883929 0.86081654
C -0.7763999 -0.11148755 0.36257133
N 1.166037 0.8193813 0.15802418
H -1.9934127 0.43344286 1.6745209
H 1.055831 0.20531271 -1.83522
H 1.7569208 -0.9790452 -0.72394097
