10

O 0.82359815 0.9346765 -1.707386
C -0.017881941 0.8128489 -0.6046066
C 0.20666012 -0.4889507 0.12195865
O 1.0217154 -1.2998815 -0.2611702
C -0.6156936 -0.7871511 1.3655585
O -1.4381049 -0.019456927 1.791751
H 1.3487432 0.12238184 -1.7523873
H 0.1361729 1.6348507 0.1115248
H -1.0783477 0.8567652 -0.8994931
H -0.38686147 -1.7660829 1.8342499
