10

O -1.5798459 -0.14581428 -0.16349287
C 0.4449845 -1.1688038 -0.10553445
C -1.0128511 -1.2511113 -0.13706313
O 1.238381 -1.4405048 0.7687967
C 0.08176138 1.2388816 -0.14828886
O 1.0914882 1.3381214 0.7000896
H 0.26553637 1.0810958 -1.2022142
H -1.5453472 -2.1737833 -0.38783452
H 1.7609644 0.6520111 0.5285329
H -0.74507165 1.8699069 0.14700909
