10

O 0.81828845 0.9348634 -1.7110451
C -0.020247722 0.8141104 -0.6055731
C 0.20942238 -0.4888314 0.12365381
O 1.0261531 -1.2983614 -0.2586792
C -0.6138146 -0.7882716 1.3659036
O -1.4410661 -0.024922986 1.7910485
H 1.3454859 0.12339219 -1.7514466
H 0.13616863 1.6373069 0.109248064
H -1.0810107 0.8557496 -0.89649767
H -0.37937924 -1.7650353 1.8333874
