10

O 1.2262278 -0.8467095 0.8892202
C 0.57805413 -0.11930581 0.19629252
C -0.89383703 0.17895092 0.40376222
O -1.5434579 -0.93673414 0.92760175
C 1.039173 0.1507076 -1.5137529
O 1.2390221 0.9984222 -0.5739532
H 1.5840759 0.4148367 -2.438068
H -0.9198809 1.0445268 1.0893956
H -1.3810867 0.4616916 -0.53223115
H -0.9282904 -1.3463863 1.5517329
