10

O 1.53267210 1.12477514 1.15913199
C 0.42920031 1.09181779 0.67622550
C -0.32161692 -0.22835092 0.53706508
O 0.37452569 -1.25586869 1.16774564
C -0.51244082 -0.43641963 -0.91143998
C -0.63635388 -0.56172658 -2.09887687
H -1.30984167 -0.11642259 1.00795130
H -0.07912480 1.99291663 0.28987369
H -0.74839223 -0.69303662 -3.15332610
H 1.27137249 -0.91768510 1.32564985
