10

O 1.6072882 1.5408692 -0.011687076
C -1.7601478 -0.7948477 -1.1814669
C 0.52010924 1.192908 0.37418827
O 1.3408852 -1.0614395 0.39557353
C -0.88473904 -0.5939672 -0.38499394
C 0.1982959 -0.28511164 0.56869197
H -2.5344589 -0.9930503 -1.8905622
H -0.29654935 1.9078257 0.57815564
H 1.9939868 -0.48826504 -0.03866765
H -0.18467027 -0.42492163 1.5907683
