11

C 0.91633284 1.175556 -0.9821948
N -0.28651774 0.66723764 -0.34281895
C -0.9075023 -1.4872684 1.1331959
C -0.25489044 -0.5134575 0.30740586
N 0.4561175 -1.5439651 0.45123112
H 1.6028392 1.6501639 -0.27058128
H 0.6390149 1.8994309 -1.7527535
H -0.9834 1.3202398 -0.029514583
H 1.4298778 0.33636147 -1.458387
H -1.6946833 -2.1239674 0.72555524
H -0.9171884 -1.3803313 2.218862
