11

C 0.7704619 -0.91493416 0.95276767
N -0.407824 -0.36699232 0.2942185
C -0.3500199 0.12015878 -1.1232982
C -0.5663548 1.4667166 -0.6823122
N -0.15010247 -0.3943311 -2.209715
H 0.27915892 2.0855572 -0.3935398
H -1.5413352 1.9503518 -0.72991914
H 0.8787968 -1.9883347 0.7576247
H 0.7204891 -0.7457902 2.0331993
H -1.2850071 -0.80750746 0.5493225
H 1.6517367 -0.40489477 0.55165166
