10

C 0.81943274 -0.09635685 0.7850403
C 0.44675422 1.1368073 0.26002425
N -0.50961405 1.2611636 -0.65866816
C -1.0919833 0.12639359 -1.0452284
N -0.82396454 -1.105537 -0.61873364
C 0.13821203 -1.203712 0.2997559
H 1.5998486 -0.1856356 1.5318948
H 0.93043154 2.0555208 0.58585733
H -1.8757417 0.21820337 -1.7951411
H 0.36662444 -2.2068472 0.65519875
