9

O 1.5157008 -0.67407256 1.2144982
C 0.6139548 -0.21870603 0.328771
N -0.1271518 0.5253643 -1.5559204
N -1.1350887 0.43551078 -0.6951245
N 0.9443692 0.12663528 -0.934613
C -0.7332395 -0.029008742 0.5173154
H -2.0577257 0.7041485 -0.99540335
H -1.3935977 -0.17774832 1.3548366
H 2.3727784 -0.6921232 0.7656401
