10

C -0.9921021 0.38272572 -1.3112342
O -0.5421383 -0.39255387 -0.19148481
C 0.5225233 0.09658009 0.4349226
O 1.1159036 1.1064073 0.14583728
C 0.9647444 -0.76457435 1.6134086
O 0.4096359 -1.7736933 1.9494963
H -1.8518276 -0.15510906 -1.7050896
H -1.2787114 1.3876373 -0.9890151
H -0.20367464 0.45812768 -2.0653431
H 1.8556471 -0.3455476 2.118502
