10

C 0.6662184 0.03339726 0.27659836
O 0.9110441 0.9452611 1.0285318
C 1.6470219 -1.0952495 0.055919193
O -0.43611103 -0.09046787 -0.4658688
C -1.3847626 0.9704627 -0.29481107
O 1.15321 -2.2945685 0.14783065
H -2.2124672 0.7353369 -0.9637252
H 2.3171906 -2.1401942 0.032569997
H -1.7263371 1.0054611 0.74220556
H -0.9350075 1.9305613 -0.5592506
