10

C -1.79472531 -0.01987459 -0.70725323
O -1.75488492 -0.84590051 -1.72427262
C -0.38031639 0.33571539 -0.38049809
O 0.15107436 1.29415064 -0.89450588
C 1.35740129 0.08516702 1.16094854
O 0.12478532 -0.40481273 0.61723198
H -2.67035813 -1.03461992 -1.98126831
H 1.23932236 1.12137084 1.49178321
H 2.14790761 0.03167620 0.40934693
H 1.57979407 -0.56287242 2.00848743
