11

N 0.19470946 -1.4215357 1.1776122
C -0.15638162 0.779874 0.69857085
C 0.18275401 -0.06315806 1.668612
C -0.41842595 -0.06305889 -0.5083263
N -0.10385715 -1.4402118 -0.03209962
N 0.2717586 0.33979544 -1.7073095
H -0.2508001 1.8563832 0.73172146
H 0.059865057 -0.31380457 -2.454998
H -1.4963117 -0.09411741 -0.7216998
H 0.44127005 0.109034225 2.7046158
H 1.2754195 0.3107997 -1.5566993
