11

N 0.10399127 0.7118136 -1.719477
C -0.004554903 0.16798428 -0.43638593
C 0.8903134 -0.5053591 0.36859688
C 0.12951206 -0.85930383 1.5078956
N -1.1194177 -0.4415776 1.4331197
N -1.1808283 0.18357868 0.23499523
H 1.0489335 0.63454306 -2.073221
H -0.1960489 1.6765594 -1.7757856
H 1.9331285 -0.70189357 0.16657664
H 0.46133342 -1.3992921 2.3853252
H -2.0663626 0.5329472 -0.0916396
