11

N -0.49814478 0.20553482 1.7131907
C 0.59277177 -0.6084666 -0.19074985
N -0.9698946 0.7816895 0.7133999
N -0.8107899 0.8545054 -1.6552869
C -0.3342816 0.31538135 -0.48258075
C 0.5386638 -0.7454536 1.2900163
H 0.2405474 -1.7379689 1.650964
H 1.2451516 -1.1507002 -0.8604779
H -0.18821923 0.82305825 -2.446522
H 1.465689 -0.4776152 1.8098376
H -1.2814933 1.7400353 -1.541791
