11

O 0.62482733 1.17046938 0.56116302
C -0.67526292 -0.43380064 -0.54707942
C -0.06050183 0.96676100 -0.67310890
N 0.25770032 -1.01935776 0.39296577
C 0.84650768 -0.03449962 1.16037880
O 1.46597251 -0.16597790 2.18019000
H -1.69575081 -0.39612087 -0.14448955
H 0.06384359 -1.89209641 0.86057160
H 0.66503390 1.01242986 -1.49093314
H -0.68893431 -0.96472738 -1.50220422
H -0.80343544 1.75692045 -0.79745415
