11

O 2.5292678 -0.10798894 0.7218001
C 1.3999325 -0.037223194 0.32101077
C -0.3978316 0.6725075 -0.88364387
N 0.34354845 -0.87765855 0.6095997
C -0.90862906 -0.26319554 0.22040926
O 0.9618961 0.9283712 -0.53683746
H -0.93384784 1.6224303 -0.9294402
H 0.427505 -1.4251815 1.4528543
H -1.6279047 -0.99327016 -0.1590207
H -0.42629483 0.186796 -1.8637451
H -1.3676418 0.2944127 1.0470133
