10

O -0.36793137 -1.55390137 -0.04140539
C -0.26655062 -0.61424970 -1.01761303
C -0.09696720 0.54931179 -0.03084100
O 1.11290313 1.24785820 -0.06900490
C -0.12695747 -0.56882817 1.00928947
O -0.29747958 -0.76660160 -2.19844998
H 0.83687296 -0.73686057 1.49203577
H 1.12779171 1.79691218 -0.86294413
H -0.94394056 -0.55999651 1.73082255
H -0.97774076 1.20635551 -0.01188941
