11

N 0.70349165 -1.61701257 -1.53965604
C -0.87720375 1.04779188 0.38336418
C 0.00773112 -0.75670209 0.78542339
C 0.36466545 -0.82539791 -0.62234488
C 0.49661424 0.50885597 -0.00159283
O -1.27587497 -0.19093775 1.00585280
H 0.46518281 -1.32985557 1.58476441
H -0.81591221 1.84382645 1.13442995
H -1.55339158 1.34185954 -0.42775545
H 1.06082500 -1.09332479 -2.34180884
H 1.42387238 1.07089696 0.03932350
