11

N 1.2844726 1.5550687 -1.3646352
C 0.06674353 -0.74352735 1.1228731
C 0.6181229 0.56781197 -1.3313776
C -0.40355343 0.5823119 0.47993344
C -0.29620174 -0.4051412 -0.8896153
O 0.1905045 -1.4683129 -0.12822396
H -0.6516703 -1.2516506 1.7790205
H 1.0423117 -0.70917076 1.6232985
H 0.7567311 1.7500278 -0.35435295
H -1.1292562 -0.62710893 -1.5590913
H -1.4782045 0.74969137 0.62217057
