10

C -0.27073186 -0.19043210 1.01139668
C 0.92927890 1.01418406 -0.54905868
N -0.29413554 1.07663089 0.23224438
C -1.03735469 -0.14324819 -0.18766916
N 1.30044727 -0.16371989 -0.83572442
C 0.24064251 -0.94038693 -0.19458176
H -0.48555058 -0.33022765 2.06186562
H 1.43407165 1.93052690 -0.83434863
H -2.08301839 -0.23162687 -0.44557465
H 0.26635075 -2.02170050 -0.25854947
