10

C 0.81957275 -0.09438044 0.78543776
C 0.4460959 1.1374288 0.26117033
N -0.5115986 1.260076 -0.65875846
C -1.0938029 0.12595074 -1.0471596
N -0.82228476 -1.1062272 -0.6177825
C 0.13942692 -1.2047377 0.30060157
H 1.5999298 -0.1841916 1.5325197
H 0.9287352 2.0571325 0.58516395
H -1.8765432 0.21533962 -1.7982202
H 0.3704689 -2.206391 0.65702736
