11

N 2.8851113 0.9755259 0.44948992
C -0.3449857 -0.0051084026 -0.4184026
C -1.3828272 -1.5445913 -0.5061887
C 0.31440884 0.60531485 0.81212723
C 1.7530537 0.8136657 0.6224871
O -1.7112635 -0.21076141 -0.17555337
H -0.15679477 0.50435054 -1.3673126
H 0.09574204 -1.0873109 -0.4737675
H -0.1701545 1.5666282 1.0194826
H 0.13769302 -0.05142235 1.6685355
H -1.419983 -1.566291 -1.6308974
