11

N -1.0689069 0.34985688 2.9349246
C 0.6759557 0.08666579 -0.046938624
C -0.88889235 -0.020155966 1.8554631
C -0.6322354 -0.48574498 0.49028823
C 0.63015264 0.15369944 -2.4679928
O 0.8982992 -0.47383386 -1.3601226
H 0.6375331 1.1803163 -0.13065739
H 0.27643934 1.1819113 -2.1686316
H 1.52732 -0.21414308 0.5674498
H -0.5895048 -1.5803741 0.4778434
H -1.4661605 -0.1781977 -0.151626
