10

O 0.54575769 1.14634338 -2.00736660
C 0.54319736 0.47821408 -1.01661258
C -1.28897272 0.20734303 0.74460314
C 0.15844440 0.38542539 0.41794038
O -1.82627041 0.69766956 1.70464638
C 0.85547716 -0.78337834 -0.35405310
H -1.85572617 -0.41232726 0.01410414
H 0.25023419 -1.66140142 -0.57594368
H 0.73112698 0.93964499 1.15684566
H 1.88673168 -0.99753318 -0.08416386
