10

O 0.06742118 -1.5812144 -1.141065
C 0.74976534 0.5886486 -0.20467287
C -0.34403643 -0.38677603 -0.9350883
C -0.03056439 0.47926688 1.1166736
O -0.024136068 1.0996493 2.144614
C -0.83726585 -0.547119 0.5150305
H 0.79936236 1.617521 -0.5602081
H 1.7103997 0.07679228 -0.22659698
H -1.1265024 -1.4972289 0.9616345
H -0.9644435 0.1504602 -1.6703212
