10

O -1.6318245 1.8750459 0.74106514
C 0.54073113 -1.0630159 0.22018953
C 0.80192417 -0.2086821 -0.93307155
C 0.23747553 0.47126657 0.2642815
O 1.1732974 -0.09350449 -2.063033
C -1.2011689 0.8742425 0.22752814
H 1.3777555 -1.4106828 0.82077783
H -0.31467208 -1.7369561 0.19633643
H -1.8630615 0.17741007 -0.3338561
H 0.8795432 1.1148764 0.8597823
