10

N 0.46807469 1.54994516 0.47799069
C 0.34137430 0.21770865 0.17868442
O -0.90697957 0.02501875 -0.36257810
N 1.16788396 -0.72942036 0.31834861
C -1.21445005 -1.20385496 -0.86749189
O -2.29980331 -1.41322235 -1.31324279
H 1.16941807 1.80187674 1.15440145
H 2.04302827 -0.41551827 0.72449160
H -0.38080705 -1.91693102 -0.81675432
H -0.38773920 2.08439724 0.50615035
