10

N 0.52157223 -1.1366897 0.6582186
C 0.19409287 0.055996865 0.39376882
O -0.45256072 0.39580908 -0.77021086
N 0.39677945 1.2061172 1.1125405
C -0.6411156 -0.5691493 -1.7151495
O -1.2279377 -0.31522658 -2.7209742
H 0.99766034 -1.212778 1.5509195
H -0.14758876 2.008857 0.83303833
H -0.2016495 -1.5379354 -1.4425042
H 0.56074727 1.1049985 2.1003528
