9

O -1.56248089 -0.69084745 -0.35628972
C 1.89927339 -0.68127748 -0.74153862
C -0.39953533 -0.10624549 0.02649089
O 0.42885635 1.55159687 1.49289279
C -0.51161549 0.91415785 1.08892826
N 0.73133350 -0.35800893 -0.49150432
H 2.33303967 -0.17621182 -1.61504852
H -1.37702215 -1.47795569 -0.88342470
H -1.54184891 1.02479207 1.47949374
