9

O 1.1650003 0.19417942 -1.5092624
C 0.35589728 0.059525236 -0.43784156
C 0.85028225 -0.56221557 0.78383917
O 0.10465386 -0.72181344 1.7349604
C -1.7123823 0.6408493 0.53557116
N -0.8747713 0.45635444 -0.36730865
H -2.5672505 -0.03632416 0.5982847
H 0.7635226 0.8145773 -2.1320546
H 1.9150475 -0.8451325 0.7938118
