9

O 0.19876651 1.4004078 1.6791216
C -0.26857033 -0.29792038 0.1035943
C 1.5841954 0.46297342 -1.3774028
O -1.0946838 -1.3558857 -0.09381069
C -0.42989898 0.4133754 1.388347
N 0.5777345 0.11641135 -0.74650306
H -1.1773208 -0.05758869 2.0559664
H 1.3925008 1.2001489 -2.168661
H -0.78272325 -1.8819221 -0.840652
