9

O 1.0034409 -0.947244 -1.5000961
C 0.31013823 -0.34743473 -0.5184924
C -0.9415072 -0.6205625 -0.0794893
O -1.1969601 0.26639208 0.9397865
C -0.08914987 1.0037032 1.0396396
N 0.84753615 0.69286126 0.20294593
H 1.859381 -0.5016576 -1.5473053
H -1.7176037 -1.3232869 -0.33226004
H -0.07527526 1.7772291 1.7952709
