10

C 0.078500755 -1.5018026 0.508711
N 0.59961903 1.4817669 -1.2228334
N 0.076323524 -0.15029857 -0.019191748
C -0.36047935 1.816539 -0.33358362
N -0.7127335 0.80799764 0.44276962
N 0.8631924 0.2264904 -1.0062224
H 0.31311488 -1.4748483 1.5739806
H 0.839993 -2.0572166 -0.037283134
H -0.79445153 2.8045156 -0.2633158
H -0.90307933 -1.9531437 0.35696897
