9

O -1.6245763 1.1903198 0.16876037
C 0.65015084 0.17432675 0.45153704
N 1.4598724 -0.6798074 -0.055646565
N -0.017008884 -1.3242856 -1.6582409
C -0.6536115 0.30118135 -0.1442782
N -0.72679466 -0.5419015 -1.1666476
H 2.3631172 -0.70521206 0.40671846
H -2.3090584 0.7570702 0.69882095
H 0.8579093 0.82830846 1.2989767
