9

O 0.21708623 -1.64541789 -0.83125143
C 0.58510390 0.68915764 -0.11403470
N 0.17848947 1.74411393 0.47099708
N -2.44931020 -0.55019682 0.76965836
C -0.20638489 -0.52746288 -0.16405360
N -1.41025794 -0.53894324 0.32991646
H 1.54218172 0.57234602 -0.63883913
H 0.86890089 2.48615963 0.38866016
H 0.67419084 -2.22975645 -0.21105300
