11

C -0.43672493 -1.3804843 -0.5682964
C -0.5137493 0.015057625 0.03717997
C 0.84068376 0.64662534 0.22595459
O 1.8964226 0.14349063 -0.054985628
C 0.8104117 2.0111449 0.81824285
N 0.7787464 3.0683513 1.2782187
H 0.051147506 -1.3599485 -1.5466112
H -1.4436635 -1.788323 -0.691718
H 0.13465598 -2.0569303 0.07295366
H -1.0103866 0.0059766527 1.0165418
H -1.1075436 0.6950401 -0.58748037
