10

N 0.5999652 -1.9216273 0.7676281
C 0.34572423 -0.8188065 0.2180881
C -0.63132215 0.14148998 0.6948846
C -0.7868119 1.2549152 -0.0040433565
C 0.86473805 0.7029915 -1.6560568
O 1.020358 -0.42704186 -0.94842196
O -0.060766984 1.5199261 -1.1403359
H -1.1948416 -0.08022119 1.5908595
H 1.3167399 -2.435143 0.25870636
H -1.4737829 2.063517 0.21869124
