11

C -1.6172105 0.124049924 1.7082632
C -1.2619879 0.8197709 0.46781287
C 0.8978406 0.24074024 -0.1802615
O -0.3865051 -0.0023764211 -0.32060426
C 1.6215456 -0.71568215 -1.087491
N -1.9073647 -0.40134767 2.6942587
H -0.74386144 1.7509216 0.7055115
H 2.3206272 -0.12871282 -1.6963787
H 0.9883854 -1.3464841 -1.7221655
H 2.2479074 -1.3447244 -0.4426777
H -2.1593761 1.0038449 -0.1262672
