11

C 0.52855253 0.4442146 0.8796286
C 0.9569741 -0.7191143 0.025791014
C -0.26606706 0.06155048 -0.3449972
O -0.1571621 0.8362712 -1.4934896
C -1.5740086 -0.5531007 -0.13933334
N -2.624094 -1.0090346 0.023131447
H -0.69329464 1.6339115 -1.3837577
H 0.8247005 -1.7232858 0.41449913
H 1.0957075 1.3667419 0.79650754
H 1.8050244 -0.5772005 -0.634067
H 0.10366755 0.23904642 1.8560873
