11

C -0.9887918 0.8936997 -0.118866585
C 0.059192035 -0.19437715 -0.17259449
C 0.6755737 -0.73959947 1.0458016
O -0.31481326 -1.4642905 0.33494958
C 0.83930016 -0.24604943 -1.4075158
N 1.4497076 -0.2483872 -2.3892066
H -1.7189509 0.7636963 -0.9215284
H -1.5123574 0.8474931 0.8413954
H -0.52675223 1.8788843 -0.22597004
H 1.6784819 -1.1574684 1.0076425
H 0.35940978 -0.3336013 2.005893
