10

N 1.6884041 -0.010951287 0.5075702
C 0.37929574 -0.4840117 0.91271293
N 1.6300496 0.8384177 -0.39882225
N -1.6526256 -0.2812226 -0.8260998
N -0.6555249 0.5482147 1.2851044
C -0.81182843 -0.1001221 0.20451689
H -2.3451495 0.4378117 -0.9751135
H 2.5961375 1.1327609 -0.5846232
H -1.2747395 -0.706452 -1.6578714
H 0.445981 -1.3744451 1.5326257
