10

N 1.32838539 0.83856094 0.80041470
C 0.32147833 -0.17712036 1.03752472
N 1.11493691 1.48987401 -0.23718407
N -1.08747950 -1.09862787 -1.05028734
N -1.12441533 0.25217211 1.02656951
C -0.70057252 -0.46426097 0.06765257
H -1.97059606 -0.81419371 -1.44778842
H 1.85516804 2.19940063 -0.29300163
H -0.36758368 -1.34569570 -1.71071859
H 0.63067845 -0.88010883 1.80681850
