11

C 0.43293962 1.14733705 -1.03124988
C 0.40160470 0.12722724 0.02766416
C -0.76987884 0.30921640 0.99087883
O -0.28267253 -2.15620189 -0.28990927
C 0.42799462 -1.25223666 -0.63328297
N 0.44987817 1.93058966 -1.88034215
H -1.72350714 0.24035717 0.45870788
H -0.71233824 1.28269682 1.48419915
H 1.17185925 -1.36315420 -1.44829619
H 1.35255066 0.21255032 0.57385947
H -0.74843017 -0.47838192 1.74777085
