11

N -1.3776107 -0.33911157 -1.478628
C -0.15994892 0.087591626 1.0368843
C 0.5311595 0.004652163 -0.31346506
N 1.8719758 0.14124148 -0.23589887
C -2.212641 -0.32007077 -0.6305245
N 0.026413424 -0.18705209 -1.4900858
N -1.3716723 -3.79157e-05 1.3344518
H -2.5970795 -0.24673188 0.40287083
H 0.58353055 0.2517704 1.835684
H 2.3034952 0.41581765 0.63017666
H 2.4023776 0.19193086 -1.0914652
