12

C -1.1187403 -1.0131308 -1.7023606
N -0.99896115 -0.58900535 -0.32126844
C 0.05450107 0.02130268 0.00905797
N 0.24352029 0.46897915 1.3122966
C 1.3504242 1.1476378 1.7482549
O 1.5019175 1.5400017 2.8806112
H -1.998068 -0.5348381 -2.146472
H -0.2419271 -0.78325087 -2.3262973
H -1.2944478 -2.0935566 -1.729354
H 0.89154536 0.2527984 -0.66216445
H -0.4896903 0.2823856 1.9878755
H 2.0999262 1.3006765 0.94982064
