11

O 0.46934304 -2.4922674 0.023201901
C -0.79136914 0.7026249 -0.5291002
C 0.21750319 -1.3056319 -0.010393443
C -0.8620302 -0.6050987 -0.7700025
C 0.34462178 1.0066199 0.41331828
N 0.8849025 -0.30889156 0.6576674
H 1.6667007 -0.50684744 1.2584815
H -0.013723746 1.4842881 1.3339576
H -1.5621185 -1.135039 -1.4008305
H -1.4321651 1.4805276 -0.9282321
H 1.0783354 1.6797154 -0.048068006
