11

O -0.8120413 0.09101154 -1.6793534
C 0.051874768 -0.8528702 0.63872224
C 0.2815098 0.36238283 -1.0466424
C 0.22482911 1.3337625 0.014633396
C 0.028130954 0.5190489 1.0947785
N 0.8472556 -0.81739914 -0.56456923
H -1.1575322 -0.5961311 -0.5870823
H -0.001520689 2.3854294 -0.08776166
H 0.17857221 -1.6832219 1.3314376
H -0.25686392 0.82239413 2.0951164
H 0.61578566 -1.5644069 -1.2092792
