12

O 0.16598644 1.23477988 -0.65013452
C 1.44115262 0.87015984 -0.72347789
C -0.84111385 0.21645485 -0.44621492
O 1.88206195 -0.24065119 -0.56604058
C -0.77339751 -0.48299459 0.90909373
O 0.00198434 -1.64794119 0.91229782
H -1.76745259 0.78682487 -0.54602542
H 2.05226860 1.74580250 -0.97215871
H -0.77320698 -0.52454743 -1.24819340
H 0.85397228 -1.42875204 0.49828847
H -0.44774328 0.25376464 1.66233255
H -1.79451218 -0.78289974 1.17023253
