10

N 0.31695070 -0.26547970 0.85931986
C -0.09343535 0.83901794 1.51324409
O -0.68950341 1.82279509 1.03371880
N 0.42219756 -1.37972795 -1.14413750
C 0.04636503 -0.30442331 -0.43891762
O -0.57663930 0.61594678 -1.13389497
H 0.14049989 0.83648100 2.58778296
H 0.93985153 -2.10341613 -0.67743321
H 0.27780631 -1.40439136 -2.13898352
H -0.78409296 1.34319762 -0.46069874
