10

N 0.35963514 -0.09075496 -0.37992322
C 1.6548697 -0.14563937 -0.18535122
O -0.26288837 0.2811547 1.8139046
N -1.8521831 0.11009712 0.18756165
C -0.5769274 0.12206724 0.65207636
O 2.2047784 -0.36119273 -1.3087003
H -2.0519009 0.08559371 -0.79647106
H 2.187236 -0.027971702 0.7563577
H 0.92134833 -0.31386405 -1.5779682
H -2.583968 0.34051004 0.8385135
