9

O -1.1562982 -1.2873358 -1.0808378
C -0.3793488 -0.47390518 -0.34692523
C 0.47787988 -0.7910155 0.65241784
O 1.0296474 0.39381018 1.0822805
C 0.4697379 1.3326082 0.3161554
N -0.37690467 0.8869175 -0.55415684
H -1.6355855 -0.72472095 -1.7046045
H 0.7989714 -1.6925014 1.1460806
H 0.7719009 2.356143 0.48959
