9

O 1.3445153 0.110897 -1.2001007
C -0.29744163 1.1190289 0.32122806
C 0.32301703 0.11790109 -0.3161254
O -1.3425364 0.5692561 1.0305421
C -1.4223667 -0.77429295 0.8784938
N -0.38195902 -1.028331 0.04065164
H 2.1062458 -0.34459248 -0.8140525
H -0.14310889 2.1843238 0.36792877
H -0.18636547 -1.9541904 -0.30856574
