9

O -1.02459368 1.29602742 -0.67749108
C 0.40439413 -0.10543309 0.20862698
C -1.41893621 0.09791458 -1.17108525
O 1.43532310 -0.74258254 0.80540679
C 0.06773160 1.18964686 0.15504017
N -0.51869605 -0.75195062 -0.60871548
H -0.51223538 -1.73995339 -0.81177714
H 1.09889252 -1.32841529 1.49848087
H 0.46812028 2.08474612 0.60151412
