10

N 0.9001986 1.9259558 -1.8482581
C 0.35102552 1.0783333 -1.2852491
C -0.32786706 0.021301461 -0.57305026
C -0.4807143 0.120896086 0.92914224
C 0.46548036 -0.8777117 0.34956208
H -1.1457458 -0.43100747 -1.1261593
H -1.4204553 -0.22701326 1.3465729
H -0.06472288 0.9984659 1.4118817
H 0.19282232 -1.9274411 0.3603948
H 1.5299785 -0.6817791 0.43516353
