10

N 0.51694327 0.67823881 -1.43719983
C 0.62661993 1.49674216 -2.26991339
C 0.38206724 -0.29965840 -0.43796192
C 0.29883537 0.13182800 0.99891886
C -0.91959313 -0.40414955 0.30585962
H -1.69607998 0.30355302 0.03395707
H -1.27144316 -1.40142390 0.55323257
H 0.34147320 1.19907411 1.19094673
H 0.91893186 -1.21498600 -0.67184748
H 0.80224536 -0.48921834 1.73400828
