10

N -0.15815341 -0.7478166 -0.8459996
C 1.0607681 -0.2858793 -0.42045715
C 0.83558184 0.59486836 0.6105079
C -0.57024485 0.6641264 0.81156456
C -1.1575006 -0.17658338 -0.103561416
H -0.29809186 -1.4089026 -1.591155
H 1.976416 -0.6222031 -0.8838401
H 1.5919034 1.1327351 1.1638083
H -1.0861326 1.2646301 1.5471406
H -2.194546 -0.41497484 -0.2880081
