10

N -0.7084922 -0.19309987 0.71605235
C 0.8474269 -0.4909817 -0.85159534
C 0.40187833 0.8717622 -1.0593928
C -0.5255956 1.019952 0.03978137
C 0.14799431 -1.0955693 0.15987977
H 0.56903344 1.5127847 0.19504935
H -1.2968203 -0.35801235 1.5170528
H 1.601841 -0.9845762 -1.4529773
H 0.20636843 -2.1040664 0.5538044
H -1.243634 1.8218068 0.18234548
