10

N 0.5777557 0.61098206 -0.49462238
C -0.7385607 0.53661406 -0.615936
C -0.27520263 -1.0748296 0.9829285
C -1.2728047 -0.44129166 0.23704499
C 0.97703177 -0.39360124 0.51279634
H 1.4929824 0.09652823 1.3459792
H 1.6679903 -1.1152357 0.06330121
H -2.3377402 -0.652393 0.2870954
H 1.168518 1.2461227 -1.0060017
H -1.2599696 1.1871041 -1.3125856
