11

N 0.07402789 -0.65962522 0.83921337
C -0.92019202 0.15693686 1.06719467
C 0.67075296 -1.18868142 -0.13634178
N 0.44688249 -0.80098025 -1.49563785
C -0.28305624 0.16764245 -2.00883269
N -0.59236069 1.36017016 1.53856103
H 0.35861581 1.68179726 1.68830741
H -1.33119885 1.99052093 1.80641960
H 1.36167523 -2.01800546 0.00049137
H 0.92149297 -1.41190343 -2.15258941
H -0.70663957 0.72212798 -1.14678553
