11

N -0.35648456 0.49672645 1.960618
C -0.1542904 0.18283841 0.6146949
C 0.5249958 -0.8687458 0.05493087
N 0.34375352 -0.7144419 -1.3114746
C -0.42145196 0.3857317 -1.4944879
N -0.735816 0.9564169 -0.3582716
H -0.751366 1.4236287 2.041606
H 0.47668028 0.4166871 2.528157
H 1.0821688 -1.692369 0.46957502
H 0.7121442 -1.3149105 -2.0293636
H -0.7203337 0.7284378 -2.4759839
