10

N -1.55351145 -0.58414303 -0.75151948
C -0.35094762 -0.55215641 -0.36630275
O 0.48906353 -1.58014533 -0.58699396
C 0.34903160 0.55030594 0.36486467
O -0.48882559 1.57906654 0.58659958
N 1.55110949 0.58446570 0.75418896
H 2.04458222 -0.26748713 0.50758699
H -0.01962929 -2.25435547 -1.06142322
H 0.02382177 2.25521979 1.05550567
H -2.04469451 0.26922979 -0.50250647
