9

O 1.91351712 -1.05559989 -0.42433170
C 1.40658628 -0.81433489 0.64809297
C 0.12427256 -0.10052118 0.84026667
C -0.58852141 0.33619565 -0.17468183
C -1.30709015 0.77687466 -1.16346394
H -1.15115437 1.77438487 -1.56446216
H -0.21731904 0.05498317 1.86115968
H 1.89348402 -1.12724542 1.59549978
H -2.07377469 0.15526292 -1.61807979
