9

O 1.2000659 -0.87830526 -1.6565983
C 0.1988328 -0.6626231 0.5029836
C -1.0212427 1.6157184 0.11038352
C 1.0146072 -1.3176761 -0.5440154
C -0.41148394 0.48330563 0.2949497
H -0.5239847 2.557657 0.32399136
H 0.117059626 -1.1640388 1.4647447
H 1.4646997 -2.2814732 -0.22609408
H -2.0385537 1.6474351 -0.2703451
