9

O 2.5034995 -0.3106504 -0.050454464
C 1.4286103 0.21888822 -0.13405058
C 0.21026461 -0.2342483 0.66500044
C -1.0252463 -0.09333591 -0.10636329
C -2.0128977 0.039953955 -0.77760184
H 1.2559125 1.0961468 -0.78914213
H 0.16001143 0.39486086 1.5637187
H 0.37417498 -1.2638928 0.99811155
H -2.894329 0.15227748 -1.3692187
