10

N -0.5686962 0.2543438 0.9158942
C 0.44503707 -0.036981374 -0.061708607
C -1.6128497 -0.2247817 0.37297243
O -1.4345834 -0.7998875 -0.8490732
C -0.120678514 -0.65121996 -1.245199
N 1.6848482 0.60609215 0.00017644773
H 0.59188724 -1.2238302 -0.03728621
H 1.8191605 1.0635209 0.8929305
H 1.8143302 1.2575036 -0.7612713
H -2.6184554 -0.24475959 0.7725647
