10

N 1.05804594 -0.86117925 1.06443156
C -0.10286445 -0.16823698 0.58158949
C 0.03118722 1.34505737 0.62582935
O -0.41459119 1.71832835 -0.56196550
C -0.74249382 0.57773770 -1.34822604
N -0.56943502 -0.52513795 -0.78299234
H -0.94598371 -0.39036896 1.25878445
H 0.91286516 -1.86270336 1.01546914
H -1.09116700 0.80492364 -2.34656053
H 1.86443675 -0.63842060 0.49364024
