10

N 0.32559738 -0.9542565 -0.4432651
C -0.102735154 0.006966622 0.60541564
C -0.45342666 -0.7366993 -1.3980235
O -1.3907174 0.31373996 -1.1865141
C -1.2123 0.85562843 0.0065619065
N 0.9341675 0.7774681 1.2316574
H -0.6049163 -0.5951179 1.3826505
H 1.6429936 0.16332006 1.6149498
H 1.3832791 1.3810725 0.5536819
H -0.5219421 -1.2121221 -2.3671143
