10

N -0.65480274 -1.2173005 1.1901646
C -0.17938618 -0.30539903 0.25740346
C -0.7803844 0.7315548 -0.37736994
O 0.13994312 1.2660437 -1.2502213
C 1.2311813 0.5154639 -1.0826688
N 1.1196907 -0.42783228 -0.20952329
H -1.3198129 -0.83837676 1.8492678
H 0.10309347 -1.6857122 1.6657456
H -1.7533123 1.1944636 -0.359018
H 2.0937898 0.76709473 -1.6837803
