11

C -1.4739275 0.5196616 -0.233455
N -0.6714767 -0.2398869 1.6190541
C -0.04843203 -0.8054704 0.58111686
N -0.56013054 -0.38231733 -0.644821
C 1.2584016 0.13909085 -0.4804203
N -1.582239 0.59303784 1.090914
H 1.0614313 1.0282482 -1.0711722
H 1.732028 -0.6421483 -1.0676208
H -2.065133 1.1217438 -0.91056055
H 0.5309994 -1.7172134 0.6979532
H 1.8184786 0.3852542 0.41901153
