11

C 1.0019011 1.0207666 0.19765489
N -0.009480364 0.001573896 -0.015088969
C -1.3083565 0.011468483 0.39704818
N -1.9058872 -1.0967621 0.05505909
C 0.1351762 -1.2073829 -0.6273936
N -0.9854763 -1.874321 -0.5981641
H 1.6977903 1.0202013 -0.64396876
H 1.5517423 0.83196986 1.1229471
H 1.0609168 -1.5425498 -1.0735314
H 0.5194245 1.998255 0.25500575
H -1.7577512 0.8367805 0.930432
