10

O 0.992153 0.50488853 -1.797559
C 0.3814507 0.18303232 -0.6552736
C 1.149585 -0.27682716 0.43482623
N 0.56464785 -0.6027977 1.5674992
N -0.760724 -0.4943506 1.6797322
C -1.4286113 -0.055265296 0.62743735
N -0.9213417 0.29832646 -0.5645523
H 0.30189925 0.7938417 -2.4164388
H 2.227009 -0.37698466 0.37973994
H -2.506068 0.026136268 0.744589
