10

O 0.8041842 0.6833429 0.03436824
C 0.078254595 -2.454448 -0.94477844
O -0.11615836 2.305 1.3357462
C -0.32552534 -1.3721004 -0.34794018
C 0.74472505 1.9245565 0.59622127
C -0.18458103 -0.20082816 0.3625039
H -0.88179505 0.14176115 1.1201835
H 1.617414 2.4975085 0.26296246
H -1.3350252 -0.76135683 -0.5438431
H -0.40149283 -2.7634363 -1.875424
