10

O -0.41036484 -2.66371296 0.19021292
C -1.08041619 -1.74713437 0.55721208
O -0.76413035 -0.42819367 0.40162925
C 0.40158525 -0.13328582 -0.22576968
C 0.78677659 1.15287939 -0.41211580
C -0.05576573 2.20612136 0.06974449
H 0.97060299 -0.99859687 -0.55978452
H -2.04434518 -1.81158158 1.07767633
H 1.74353317 1.26251625 -0.92888912
H 0.45252429 3.16098857 -0.16991600
