12

O 0.8895719 -0.42496905 -0.6540333
C -0.29058573 0.6530478 0.9780228
C 1.0294329 0.682291 0.22027129
O -0.84467924 -1.865646 -1.0407032
C -0.47077456 -0.5482881 -0.9774176
O -1.191535 0.18346867 -0.008787121
H 1.1470877 1.612988 -0.35060352
H -0.62555975 1.6359082 1.3226753
H -0.6173088 -2.2803936 -0.19683881
H -0.6826939 -0.13425714 -1.9707769
H -0.2520629 -0.035870142 1.8315227
H 1.9091072 0.52172035 0.8466683
