14

C 2.1219444 -0.1642495 -1.1978172
N 1.1234215 -0.5411622 -0.21207757
C -0.036516298 0.20643382 -0.11783855
O -0.19333832 1.2709968 -0.6894491
N -0.9988749 -0.3699804 0.6897126
C -2.1558318 0.42259678 1.063587
H 1.8425465 -0.44541448 -2.2216597
H 3.0715716 -0.640043 -0.94314855
H 2.2473512 0.9186966 -1.1657732
H 1.0248253 -1.5350254 -0.054880224
H -0.6524525 -0.9972479 1.4037738
H -2.9266114 -0.2382234 1.4670357
H -1.9214749 1.1968634 1.8058254
H -2.5465603 0.9157588 0.17270981
