12

N -1.0273643 -1.1690727 0.25588337
C 0.5347222 0.59611183 1.0499511
C -0.52155125 -0.40468496 1.1430374
N 0.12335793 1.8384286 0.8826619
C 0.8266711 -0.5802967 -1.4342734
N 1.0269775 -1.7762471 -1.1111706
C -0.4009112 -1.2550944 -1.0166066
H 0.78928655 2.5919583 0.9817847
H -0.8750465 -0.5599002 2.1755483
H -0.8225247 2.1370294 0.6645703
H -1.0738462 -1.6624645 -1.7708184
H 1.420229 0.24423222 -1.8205676
