12

N -0.45696595 -0.45329675 1.9146662
C -0.14132081 -0.13407813 0.5988919
C -0.9279338 0.72371083 -0.1757831
N -0.5953909 1.085127 -1.4126556
C 0.5393939 0.58074695 -1.8926612
N 1.367564 -0.24955066 -1.2557462
C 1.0223564 -0.59939766 -0.02266082
H -1.432388 -0.38163218 2.1599734
H -0.03405288 -1.3009042 2.2648997
H -1.856705 1.1332558 0.22011603
H 0.8202703 0.8721158 -2.9015908
H 1.695173 -1.2760968 0.5025505
