12

N 1.0681087 1.1385416 0.44989863
C -0.5064515 -0.06947097 -0.46694958
C -0.38919514 -1.0971467 0.5140826
N 0.33962467 -0.88525534 1.6221213
C 1.0685941 0.19290197 1.5364571
N -0.5612986 -0.39835975 -1.8109025
C -0.2266251 1.2439551 0.022402363
H 0.105469644 -1.0620047 -2.1740901
H 1.6866295 0.49880013 2.3831549
H -0.8243784 0.3245319 -2.464215
H -0.83490753 2.144782 0.008424691
H -0.92557025 -2.031275 0.37961552
