10

O 0.95121753 2.238801 0.5981605
C -0.12907952 -0.9031392 -0.80960166
N 0.5019715 0.1034807 1.339658
C 0.16005398 1.4153947 0.972108
C 0.3968148 -0.9068533 0.58740366
N -0.6582202 0.14722426 -1.279919
H -0.036001146 -1.8506342 -1.3539101
H 0.70267636 -1.8761089 0.99147546
H -0.9858043 0.0037152492 -2.23613
H -0.9036288 1.6281197 1.1907548
