10

O 0.54009930 2.44479643 -0.07812756
C 0.59076741 -0.63876230 0.75356793
N 0.54143294 0.53704721 1.21482428
C -0.06081785 1.62778113 0.56620078
C 0.00266026 -1.09322149 -0.54095875
N -0.73899709 -0.30967158 -1.20461949
H 1.09473567 -1.40059334 1.35515847
H -1.13288522 1.70744313 0.82850768
H -1.08217202 -0.75393388 -2.05732556
H 0.24517670 -2.12088518 -0.83722746
