11

N -1.61457933 0.63811724 -0.77222765
C 1.46788750 -0.57502108 0.68622891
C -1.02786060 0.02879030 0.28546287
N -0.72163006 0.95294155 -1.71373827
C 0.29886627 -0.01878314 -0.05992658
N 0.43491009 0.55942133 -1.29171798
H 2.22223109 0.20007897 0.86152238
H 1.15597163 -0.97647114 1.65379788
H -1.57855333 -0.30169502 1.15274959
H -2.58399225 0.87107773 -0.92037880
H 1.94674940 -1.37845670 0.11822786
