11

N 1.0391666 0.13449839 1.7672222
C 0.37290803 0.057811853 0.5404264
C -0.9696708 0.12510394 0.27313295
N -1.0540727 0.06248435 -1.1114411
C 0.2074752 -0.026562242 -1.5862651
N 1.0952498 -0.03927966 -0.6217891
H 2.0095196 -0.12500812 1.6468974
H 0.61629266 -0.4260218 2.4961064
H -1.84255 0.22618838 0.89785266
H -1.8983054 0.09257626 -1.657591
H 0.42398742 -0.081791304 -2.6445515
