11

O -1.8733135 -0.08708303 -0.101211585
C -0.6232795 0.49720818 0.08279681
C 0.27306494 0.07353068 1.265349
O 1.3661305 -0.18432137 0.34089577
C 0.5399618 -0.0016782479 -0.74457115
N 0.69591814 -0.26161164 -1.9611256
H -1.7461014 -0.9478157 -0.51932627
H -0.7483472 1.581427 0.021593653
H 0.5482699 0.83742726 1.9938829
H -0.052519374 -0.8478828 1.7561928
H 1.6202157 -0.65920025 -2.1344764
