17

C -0.21045807 -1.4369683 -0.5033333
N 1.4458392 0.8395983 -0.3861884
C -1.513527 -0.5492217 1.4202602
O 0.29601726 1.5536249 1.4827697
N -0.42416847 -0.38004905 0.47360295
C 1.055492 1.4842827 -1.7622564
C 0.3876277 0.69397616 0.6320915
H -2.4608827 -0.63665915 0.8772318
H 0.20191678 0.8687588 -2.078654
H 0.48607695 -2.2011144 -0.13065328
H -1.36376 -1.454482 2.0211449
H 2.1370006 1.4633974 0.027711218
H 0.60557586 2.4308927 -1.4221175
H -1.5489796 0.3184719 2.077786
H 1.9126983 -0.047399998 -0.571704
H -1.1689657 -1.9194766 -0.7113058
H 0.16249676 -1.0276316 -1.4463851
