11

O -2.2944484 0.52283645 -0.23106642
C -1.1457416 0.1969154 -0.15128598
C -0.37621918 -0.83353335 0.63119274
N 0.87255573 -0.36222225 -0.055563476
C 0.7306436 -0.22940677 1.4425684
C 0.14386597 0.65837383 -0.866066
H 0.110406235 0.4225034 -1.9344088
H 0.52495366 1.6686864 -0.7060074
H -0.6557989 -1.8804384 0.7031139
H 1.5373642 -1.0001913 -0.47084814
H 0.5524189 0.83647674 1.6383712
