11

O 1.6463709 -1.6007013 -0.55581135
C -0.61427665 -0.5227975 -0.7534
C 0.53949094 0.061212495 0.99355817
N -0.86580026 0.2017894 0.5206104
C 0.7755773 -0.8472621 -0.23288083
C -0.7298175 0.92307925 -1.0462798
H 0.60030144 -0.50307554 1.9283851
H 1.0867969 1.0032396 1.0801702
H 0.25645983 1.411085 -1.0121624
H -1.3122085 -1.2663645 -1.1300311
H -1.3828944 1.1397955 0.20784165
