11

O -2.2972217 -0.62269026 -0.4266883
C -1.1539567 -0.37441173 -0.1632833
C 0.11406249 -1.2126697 0.041678447
N 0.7562956 -0.049851455 0.72837347
C 0.85695404 0.9810592 -0.28307492
C -0.4433622 0.81118625 0.4124702
H -0.060488764 -2.0391915 0.73629665
H 0.657943 -1.578512 -0.83474916
H 0.96204567 0.6990696 -1.3290805
H 1.4550667 1.8354802 0.022965377
H -0.84733826 1.5505314 1.095092
