10

O 0.8036878 -0.64699256 0.34924772
C -0.36436638 -1.0325116 -0.35303676
N 0.43203577 1.4953743 -0.36250257
C -1.5915115 -0.64602727 0.36350745
C 1.1235483 0.66464025 0.28469846
N -2.5624447 -0.37844813 0.92304796
H -0.3167928 -2.1224055 -0.42337203
H 2.0389113 0.82984126 0.85667497
H -0.38827574 -0.59221625 -1.3517829
H 0.82520795 2.4287457 -0.28648216
