10

O 0.56661769 0.09436565 0.92548744
C 0.77390174 1.08862445 0.03366865
N 0.43940518 0.98809023 -1.17677868
C -0.05738711 -1.07084848 0.41649528
C -1.50388370 -0.87953098 0.21715608
N -2.64172356 -0.75885900 0.08241868
H 0.66829468 1.83663614 -1.68582196
H 1.26256456 1.92059615 0.54491188
H 0.10254732 -1.84268237 1.17397297
H 0.38966347 -1.37639181 -0.53151029
