11

N -0.28039786 -0.10097615 1.3826983
C -0.2945263 -1.8639212 0.10970062
C 0.031694252 -0.8202627 -0.76527125
C 0.011289004 0.23231842 0.13401528
N 0.25556362 1.6765432 -0.062381618
N -0.47433147 -1.4291162 1.3666992
H 0.12313266 2.0760655 0.8751239
H -0.40886167 2.109476 -0.7080944
H 1.2060426 1.8792961 -0.38133374
H -0.40563667 -2.9150186 -0.12557127
H 0.2360317 -0.84440476 -1.8255854
