10

O -1.2720647 0.415102 1.710779
C -0.49459246 0.19097422 0.6496484
C 0.6647735 0.27517357 -1.1585904
N 0.81588936 -1.0895488 -0.6622956
C 0.12559986 -1.1311711 0.41089296
N -0.18999024 1.0304713 -0.26235276
H 0.2374913 0.24333306 -2.1678224
H 0.02307298 -2.0116584 1.0388706
H 1.6534244 0.73915285 -1.2356887
H -1.5636041 1.3381712 1.6765587
