11

N 0.29149521 0.67934864 1.17102225
C 0.81629728 -0.52218793 1.28342897
C 0.05156246 -1.11597741 0.06298173
C -0.61671927 0.66129574 -0.02271891
C 0.30767484 -0.04262294 -1.02877915
O -1.30017108 -0.55574586 0.20624210
H 0.06852454 -2.18675665 -0.12118373
H -1.23368233 1.54493844 -0.17533529
H 0.48958098 1.47061058 1.76558280
H -0.19170627 -0.28006227 -1.96867775
H 1.31714352 0.34716001 -1.17256244
