11

N 0.14229605 -0.34510973 1.7153988
C 0.23431388 -0.92809373 -0.40016514
C 0.5813229 0.517071 -0.69022524
C -0.56048125 0.632947 1.509128
C -0.8241814 0.7044253 -0.078501835
O -1.1063265 -0.6215512 -0.46135
H 0.57612514 -1.2467053 1.674933
H -1.5622984 1.4301201 -0.41432258
H 1.4498711 0.9873736 -0.2292109
H 0.55664897 -1.857468 -0.8638189
H 0.5127095 0.7269909 -1.7618653
