11

N 0.7451745 1.166697 0.03619428
C -0.23651254 -0.45352963 0.9951903
C 0.93828654 0.5520661 1.1836607
C -0.40163907 0.48484957 -0.6494442
C 0.018976305 -0.9789182 -0.44297433
O -1.3079802 0.3805886 0.4314791
H 1.2901717 1.9367356 -0.3227685
H -0.5545272 -1.0802311 1.8239754
H 1.0273561 -1.2790859 -0.7340086
H -0.77600676 0.9592471 -1.5547372
H -0.7432995 -1.6884192 -0.766567
