10

O 2.362905 -0.39508235 0.27465117
C 1.1726165 -0.19587968 0.13613667
N 0.32972676 0.5715308 0.9243048
C -0.9736303 0.5515446 0.43516478
C -0.9757665 -0.22325021 -0.66284674
N 0.32549587 -0.6805497 -0.8490216
H 0.6608367 1.0577366 1.7394031
H -1.7761303 1.0898783 0.9139375
H -1.7801319 -0.49184486 -1.3293676
H 0.65407836 -1.2840836 -1.582362
