10

O -1.7459974 0.004751428 -1.4931952
C -0.8325573 -0.019105392 -0.7026214
N -0.5818523 -0.8523121 0.34926283
C 1.3471806 0.43238923 0.3936742
C 0.6278316 -0.5579399 0.9882904
N 0.2990275 0.8516019 -0.67676264
H 0.9161272 -1.1213561 1.8646255
H 0.58393365 1.320848 -1.5269383
H -1.2119534 -1.6066967 0.5743102
H 0.5982598 1.5478195 0.22935435
