10

O 2.06733136 -0.47984482 0.66673349
C 0.95749741 -0.26086463 0.24989569
N -0.03800579 0.63664210 0.93500209
C -1.37464635 0.71029158 0.14089356
C -1.05182745 -0.10942942 -0.87523234
N 0.27907672 -0.67360544 -0.82491578
H 0.35229137 1.57327888 1.03887391
H -0.21914403 0.29822695 1.87976106
H -1.66882170 -0.39172544 -1.71787350
H 0.69624866 -1.30296986 -1.49313810
