10

O -1.7265782 -1.190419 -1.1447257
C 0.11750947 1.2437996 0.38900757
N 0.4764665 -0.7952141 -0.34113744
C 1.1004893 0.28586555 0.07644445
C -0.993205 -0.5707284 -0.37500858
N -1.102302 0.79456913 0.123433225
H 0.88610226 -1.6473615 -0.6900268
H -1.2065887 -0.6431617 0.8253038
H 2.1696315 0.33751592 0.2391152
H 0.27847466 2.1851346 0.8975943
