10

O 2.3635383 -0.39708275 0.27402303
C 1.1729404 -0.19655637 0.1349953
N 0.3316315 0.57153267 0.9239166
C -0.97271425 0.5525997 0.43602547
C -0.97576326 -0.2231954 -0.66222054
N 0.32598984 -0.67998356 -0.8497284
H 0.6603532 1.0579885 1.7388164
H -1.7749534 1.0915763 0.9136767
H -1.7820584 -0.49286768 -1.326228
H 0.65103626 -1.2840117 -1.5832763
