11

N 0.40986297 -1.5246375 0.5302412
C -0.30195674 0.5084614 -0.091523476
C -0.45156702 -0.5296328 0.8426819
N 0.67520416 0.22020349 -0.96417326
N -0.96270156 1.7156913 -0.13089009
C 1.12222 -0.9821072 -0.57468295
H 1.6175112 -1.1082709 0.6141621
H -1.892851 1.7247452 0.25405678
H -0.88714767 2.184368 -1.0216099
H -1.0789324 -0.5836367 1.7225841
H 1.750358 -1.6251843 -1.1808466
