10

N -0.15727428 -0.7484523 -0.8451754
C 1.0607301 -0.28650466 -0.4184227
C 0.8351338 0.5952735 0.6103833
C -0.57130504 0.66541976 0.8097896
C -1.1571671 -0.17564249 -0.1043571
H -0.29725268 -1.4111162 -1.5878668
H 1.9756732 -0.6253779 -0.8814531
H 1.5927801 1.1331959 1.1623155
H -1.0869129 1.2675253 1.5443326
H -2.194405 -0.41432086 -0.2895461
