15

N 1.94244428 -1.33949917 -0.77318501
C -1.05827959 -0.22349228 0.78932646
O 0.29909780 -0.61963709 0.54813080
N -0.09620333 -0.52583193 -1.72045609
C 0.67136760 -0.79327718 -0.73987617
C -1.17735621 1.28451179 0.67009799
O -0.27218991 1.93020216 1.53587687
H -1.25175686 -0.53150826 1.81975434
H -1.73384736 -0.73396892 0.09855007
H 2.50015046 -1.18904443 0.05377506
H 2.43957304 -1.21223419 -1.64159982
H 0.59324727 1.52954368 1.36901413
H -1.02910972 1.57632192 -0.37824785
H 0.35705745 -0.74196515 -2.60281409
H -2.18419495 1.58987925 0.97165315
