15

N -0.47497064 -2.2359693 1.2964009
C -0.31980562 -0.9199185 0.9025967
O -0.79376525 0.002107069 1.5540482
N 0.4133829 -0.75916475 -0.24367107
C 0.9325258 0.53856194 -0.6727402
C -0.13512132 1.5808045 -1.0158089
O -0.6086951 2.2995837 0.09032717
H -1.1887435 -2.3438027 2.0019364
H -0.47181717 -2.9528542 0.58621264
H 0.970257 -1.5552309 -0.523999
H 1.5291076 0.33631763 -1.5688628
H 1.5978445 0.9697605 0.08689281
H -0.94218934 1.081292 -1.57692
H 0.317164 2.3199809 -1.6862676
H -0.8251739 1.6385323 0.7698546
