10

O -1.316793 -0.34352955 -1.4741606
C -0.4446501 0.06099616 -0.5064083
C 0.5318094 0.28879192 1.4260062
C -0.74053776 0.56474984 0.82466346
N 1.3976909 -0.40388712 0.6754237
N 0.7996575 -0.62728304 -0.47005075
H 1.3050493 -1.0491937 -1.2346345
H -2.2005322 -0.23463479 -1.0964981
H -0.16883984 1.1923158 -0.57632405
H 0.8371458 0.5516745 2.431983
