11

C 0.7487698 -1.2149247 0.41422015
C 0.08030237 0.0887075 0.13485195
N -0.9089317 1.5999019 -0.97519886
C -1.2957455 0.5508493 0.013236302
C 0.30699575 1.1839185 -0.8975982
O -0.59058255 0.78737307 1.2114966
H 1.1717457 1.5903347 -1.4138854
H 0.10708507 -1.828513 1.052375
H -2.2620325 0.06319339 0.041701563
H 0.9428555 -1.7563807 -0.51617396
H 1.6995381 -1.0644598 0.9349752
