11

C 0.46494998 -0.82448189 1.14556875
C -0.08021937 0.10956701 0.11858519
N -0.24052779 1.12886669 -1.73339611
C 0.53034916 1.23279560 -0.70748621
C -0.92451431 -0.01498010 -1.06189235
O -1.48763533 0.44998613 0.14464283
H -0.22441747 -1.66164961 1.28490371
H 0.58481771 -0.32064043 2.10970639
H 1.43749009 -1.21609897 0.83367316
H 1.31602358 1.96612161 -0.55106457
H -1.37631597 -0.84948612 -1.58324068
