11

C 0.88488436 0.5129908 1.1558858
C -0.045252245 0.37271443 0.005958893
N -1.0940877 -0.4498165 -1.9009002
C -1.362917 -0.66270846 -0.61794555
C 0.122839265 -0.024916515 -1.302741
O -1.4502573 0.4378049 0.23204806
H 0.8191009 1.5280279 1.5618114
H -1.5015765 -1.6346642 -0.13262692
H 1.078241 -0.22735351 -1.7792478
H 0.639917 -0.18843296 1.9599237
H 1.9091078 0.3363543 0.8178337
