10

O 0.21338342 2.210998 0.39338967
C 0.11806154 0.8828936 0.16422206
C -1.0030307 0.19389534 -0.2115206
N -0.56948423 -1.1182655 -0.31126884
C 0.74397576 -1.1394706 0.00074620615
N 1.1950879 0.059572898 0.2947506
H 1.1300908 2.3767176 0.6461271
H -2.0194356 0.49116388 -0.40971637
H -1.1373287 -1.9084829 -0.56736076
H 1.3286797 -2.0490222 0.00063099107
