10

O 0.7981506 1.9261672 1.0809413
C -1.0162159 -0.4591012 -0.5343232
C 1.1382055 -0.39627203 0.53014225
N -0.8720755 0.7239102 -0.03488569
C 0.38832444 0.76912636 0.52476406
N 0.13968098 -1.2131286 -0.33541915
H 0.15227705 -2.225798 -0.2967946
H 1.0791879 -0.8568307 -0.85196877
H -1.8876429 -0.8307851 -1.0615069
H 0.08010787 2.5627117 0.9790505
