10

O -1.27624817 1.81761242 -0.02851984
C 1.11616459 -0.66695037 0.16693061
C -0.66136739 0.61168864 -0.06516293
N 0.03824430 -1.37299872 -0.20491456
C -1.14065798 -0.63752609 -0.37501085
N 0.68266004 0.59945203 0.25934823
H 1.23861707 1.39936684 0.51980430
H -2.19154107 1.63712522 -0.27473036
H 2.12024499 -1.01744949 0.35155660
H 0.07388350 -2.37032038 -0.34930114
