9

O -1.02829634 -0.99197390 -1.98856692
C -0.40945267 -0.54573366 -1.07356532
N -0.75729953 0.08743873 0.06336688
C 0.39665446 0.42873027 0.85577821
C 1.57513907 -0.08736600 0.04776100
O 1.03686801 -0.62255646 -1.02154383
H -1.72232055 0.27747722 0.26973511
H 0.50767321 1.50857409 1.00700587
H 0.40103424 -0.05459015 1.84002900
