15

N -0.47727823 -2.2384617 1.2933463
C -0.31890395 -0.92578536 0.89931464
O -0.7966533 0.0023855295 1.5434636
N 0.4162721 -0.7603131 -0.24298795
C 0.9356249 0.5398997 -0.67027396
C -0.13496962 1.5819268 -1.0115405
O -0.6081098 2.3022537 0.0918921
H -1.1899347 -2.3416758 2.0016108
H -0.47873038 -2.9544997 0.58329403
H 0.97037894 -1.5561192 -0.52418107
H 1.5297939 0.33878615 -1.5681541
H 1.6010813 0.97174835 0.08843854
H -0.94199026 1.0803709 -1.5710391
H 0.3174129 2.3195722 -1.6838827
H -0.82399386 1.6399117 0.7706993
