12

N -0.44969046 1.3708473 0.65864277
C -0.5629001 -0.738196 0.20113066
N 1.8131905 0.6189909 0.16979612
C 0.4493565 0.44152278 -0.086324796
C -1.2583778 0.40672866 0.9099922
C -0.6898535 -0.63423127 -1.3025519
N 0.107325375 0.34379318 -1.5404603
H 2.0274801 0.64397067 1.1593872
H -2.18722 0.47195044 1.4721029
H -0.35916343 -1.6867613 0.7016711
H -1.2822224 -1.1761699 -2.0362704
H 2.3920753 -0.06244555 -0.30711567
