10

C 1.3369937 0.878901 -1.0036201
O -0.14959012 1.063716 0.6849439
C -1.0274343 -1.1705731 0.27249163
O 2.1719434 0.4466679 -0.274519
C -0.6746543 -0.14911662 1.0408816
O 0.03476857 1.1091214 -0.72742057
H -0.7863027 -0.1326795 2.1219897
H -0.94795716 -1.1563596 -0.8074595
H 1.4687376 1.1657315 -2.060604
H -1.4265045 -2.0554092 0.75331646
