10

C -1.38003743 -0.77077875 0.03887275
O 0.41348030 1.25412414 0.12925394
C 1.33263897 1.04348564 -0.83814291
O 1.98448275 0.06578156 -1.02455450
C -0.40756417 -0.71668326 0.93866141
O 0.55237247 0.24151455 1.12230678
H -1.54804114 0.00203076 -0.70096054
H -2.04430360 -1.62621621 0.05789036
H 1.34819429 1.97037243 -1.43604095
H -0.25122250 -1.46363075 1.71271373
