10

C 0.53268564 -0.5881742 -0.96824574
O -1.3178589 -0.8509146 1.3359029
C 1.135362 0.1998645 -0.0020830939
O -1.0976157 0.6639505 -0.42692447
C -0.9626333 0.1891123 0.82169974
O 0.51159596 0.58537227 1.0844356
H 0.982834 -0.68771863 -1.9532292
H 2.119976 0.6522453 -0.122555345
H -0.20471574 -1.3357848 -0.67764646
H -1.6996298 1.1720473 0.90864587
