10

O 0.25251228 -0.8176464 1.3471993
C -0.20624971 0.14738409 -0.43570164
C 0.4961809 -1.0983037 -0.44593608
O 0.90965974 -2.083406 -0.89524615
C 0.2594549 0.5503966 0.9597746
O -0.35880277 0.904463 -1.5655973
H 1.2681805 0.9826861 0.9696743
H -1.2910706 0.9427336 -1.8131737
H -0.43818715 1.1753031 1.5230782
H -0.89167815 -0.7036105 0.35592842
