10

O -0.56476253 -1.8816712 -0.7838937
C 0.21092643 -0.99091476 -0.045487095
C -0.31522393 0.41987017 -0.14527331
O -1.2890345 0.6932687 -0.81435317
C 0.40273502 1.5284915 0.6082026
O 1.3770959 1.3173995 1.2804278
H -1.2632 -1.361423 -1.2059464
H 0.23812091 -1.2703546 1.0193167
H 1.2563349 -0.9855991 -0.3902342
H -0.052992143 2.530933 0.47724092
