11

C -0.9889546 0.8924605 -0.11546327
C 0.058212385 -0.19450425 -0.17290069
C 0.67529845 -0.739311 1.0444779
O -0.3138999 -1.4643897 0.33472055
C 0.8387307 -0.24549846 -1.4087851
N 1.4465097 -0.24811831 -2.3909736
H -1.7206821 0.76305574 -0.91899705
H -1.5111263 0.84560055 0.8438681
H -0.5275325 1.8793685 -0.22317888
H 1.6807349 -1.1560732 1.0036569
H 0.3627093 -0.3325904 2.0035748
