9

O -0.9308937 -1.1288779 -1.9711158
C -0.40817845 -0.6192787 -1.0181942
N -0.8978937 0.32057777 -0.14113103
C 0.06417577 0.6267659 0.8197291
C 1.1287742 -0.12497544 0.52746975
O 0.8687603 -0.8907373 -0.58455664
H -1.8218278 0.7070603 -0.22514917
H -0.103295505 1.3416559 1.6091971
H 2.1003788 -0.23219056 0.98375076
