9

O 0.59898552 0.82422240 -1.37566574
C -0.22671825 0.20393461 0.78540027
N -0.29310477 -1.14682059 0.34560775
C -0.04567247 -1.71035070 -0.70071100
C 0.27958402 1.16839108 -0.26998201
O 0.14040066 -2.40363690 -1.61917443
H -1.21572281 0.55076064 1.11521620
H 0.33502933 2.22523412 0.05452157
H 0.42721869 0.28826532 1.66478727
