13

C 0.18063086 -0.5451844 0.292254
C -0.39558497 1.425197 -0.06930004
O 0.38622582 0.7430782 0.9255382
C -0.7232396 0.10462144 -0.7753788
O -0.3854177 -1.4369348 1.1866127
N 1.3449316 -1.1854447 -0.20486163
H 1.8646804 -0.56182814 -0.81522846
H -1.2412724 1.9590675 0.375768
H 0.21056737 2.1319327 -0.64727676
H 1.9432254 -1.4595131 0.56578887
H -1.7640086 -0.22246654 -0.71184844
H -1.0611713 -0.9520413 1.6766585
H -0.35956672 -0.00048391215 -1.7987264
