10

N -0.16911563 0.84030324 -0.40677762
C -0.77838624 0.35646716 -1.5091815
O 0.16631147 -1.3610649 0.3558667
N 0.8772277 0.36865893 1.5799206
C 0.2652 -0.057632644 0.4635491
O -0.98302156 -0.83762544 -1.7945151
H 1.1308856 -0.2911181 2.2938712
H -1.1174967 1.1336813 -2.2097802
H -0.30726194 -1.5107777 -0.52317196
H 0.91565734 1.3591086 1.7502186
