10

N 1.4770128 0.50137293 0.9200137
C 0.22385633 0.62416154 0.37553033
O -0.44479236 1.6324816 0.43919554
N -0.2302052 -0.5494816 -0.23319161
C -1.4580873 -0.6422432 -0.8682458
O -1.853914 -1.6715227 -1.3581345
H 1.8769752 1.3764526 1.2249521
H 2.126557 -0.16693898 0.5364572
H 0.289832 -1.4126843 -0.16509262
H -2.0072343 0.30840185 -0.87148416
