10

C -0.27404067 -1.2323476 -0.58167434
C 0.33495164 1.2440243 0.5222083
N -0.16309947 -0.6940026 0.75698066
C 0.97663885 0.16356547 0.978402
C -0.91997313 -0.15417211 -1.0323678
N -0.8783339 0.5057457 0.25653672
H 0.46218786 2.3123157 0.4381831
H -1.4436438 0.18663588 -1.9121937
H 0.009953683 -2.2234814 -0.90050656
H 1.895359 -0.108283214 1.4744319
