11

O -0.5837569 -0.20845859 2.484526
C -1.2216493 0.03042041 -0.2653522
C 0.070373625 -0.01785071 0.21979438
C 1.1638385 0.053062722 -0.71089953
O -1.5376588 0.14508316 -1.5204601
C 0.2948412 -0.14476569 1.6574264
O 1.0172724 0.15652402 -1.9305412
H 2.1818616 0.010421772 -0.28412548
H -0.67863536 0.18173955 -2.0306253
H 1.3642856 -0.1832775 1.9657509
H -2.0707724 -0.022899179 0.41450614
