11

O -0.473093 -1.976197 -0.40924066
C 0.9346111 1.1355801 -0.16177073
C -0.06268268 0.10923156 0.10230993
C -0.32847708 -0.8647561 -1.0070424
O -0.5340992 0.7526967 2.286136
C -0.67695403 -0.08566279 1.4256439
O 1.7508868 1.0138946 -1.0573312
H -0.96001536 -0.56059223 -1.860864
H 0.86132836 2.04951 0.4532018
H 0.7941589 -0.59362644 -1.3066192
H -1.3056637 -0.9800781 1.5355767
