11

O 1.2010099 0.6340845 -1.9624468
C 0.16425176 0.68395066 -1.3544549
C 0.03960522 0.16084698 0.05222804
C 0.86634254 -1.0034055 0.43864793
O 1.1959257 0.2894709 0.87294996
C -1.25277 0.36514997 0.7757651
O -2.2895875 0.5958656 0.20547926
H -0.76600534 1.1003832 -1.7839743
H 0.4993091 -1.6843016 1.2074405
H 1.5170081 -1.4188294 -0.3291757
H -1.1750897 0.2767847 1.877541
