10

C -1.05890943 -0.32929172 -0.52661140
C 0.71267151 0.69537049 2.33169055
C 0.31565296 0.01034710 -0.19699756
C 0.51365670 0.38197954 1.18852139
N 1.24495020 -0.02207169 -1.07710127
N -1.55383485 -0.97127991 -2.82110474
N -1.32680684 -0.67294653 -1.75476391
H -1.88237121 -0.31471149 0.17079739
H 2.13661721 0.24805048 -0.66139238
H 0.89837361 0.97455373 3.34696172
