10

C -0.6296442 -0.79575896 0.6909107
C 0.37221602 -0.0020496324 -0.001709814
C -0.6073198 1.8787256 -1.5905265
C -0.18116868 1.0203695 -0.8650773
N -0.21792834 -1.7416596 1.4871445
N 1.6247413 -0.21556823 0.1558246
N 0.14428052 -2.5602214 2.1773536
H -1.6964009 -0.66481304 0.59311384
H -0.978166 2.6450965 -2.2373285
H 2.16939 0.43587914 -0.40970528
