11

N 1.3778279 0.08537396 -1.5233262
C 0.50286645 0.023205956 -0.42552736
C 0.975691 -0.13891439 0.9310242
N -1.3292323 -0.017413542 0.8571586
C -0.85556215 0.13731337 -0.43533352
N -0.15980658 -0.06747016 1.6194736
H -1.5588685 0.2797105 -1.2459261
H 2.2974448 -0.22837715 -1.248948
H -0.26074782 -0.26712614 2.601303
H 1.0488698 -0.42500812 -2.3328185
H -2.0384827 0.6187057 1.2029201
