11

N -0.9808959 -1.7042203 0.59744436
C -0.34793562 -0.5377899 0.15272585
C 0.9658868 -0.1633031 0.26498064
N 1.0434538 1.0500292 -0.4022236
C -0.1929037 1.3248116 -0.87470317
N -1.0597816 0.3942516 -0.55569273
H -1.9831771 -1.6028168 0.5185721
H -0.72983676 -1.9702312 1.5400814
H 1.828353 -0.624561 0.72065276
H 1.8658934 1.6157246 -0.5155127
H -0.40905637 2.2181053 -1.4463247
