11

N 1.46621895 0.02339573 0.68210962
C 0.85025841 1.10011892 0.43985453
O -0.76791582 -2.25177476 -0.96534079
C -0.54207373 -1.06955188 -0.95424466
C -1.09836442 -0.14202620 0.10938376
O -0.44932106 1.12756099 0.11418292
H 2.43721103 0.20783337 0.91255257
H -2.14498554 0.07818572 -0.12151886
H 0.03621368 -0.56002126 -1.75182421
H 1.24494506 2.11901628 0.45108066
H -1.03218646 -0.63273694 1.08376415
