11

N 0.48336983 2.82610081 -0.32926374
C 0.18826511 0.35130176 -0.75602928
C 0.27723476 1.64776290 -0.52611114
C -0.18240969 -0.58914218 0.32127887
N -0.65683215 -0.15504471 1.42137450
N -0.00786132 -1.92071412 -0.04555847
H 0.34700716 -0.00101042 -1.76942548
H 0.72779219 -2.11046921 -0.71060627
H -0.31499028 3.45245853 -0.39763733
H -0.83612808 -0.92101234 2.07344670
H -0.02544774 -2.58023089 0.71853196
