11

N -1.46339677 0.49102123 1.10929949
C -0.57548407 -0.33326549 1.45714500
O 0.44822316 -0.71125620 0.65081999
N 1.07004253 0.82745771 -0.89612058
C 0.38849215 -0.34419000 -0.69051542
N -0.20947512 -1.11420859 -1.49308618
H -0.46257609 -0.83716559 2.42342351
H -2.12043552 0.63141814 1.87162809
H 1.67100000 1.14523013 -0.15273090
H 1.38914676 1.01531740 -1.83420807
H -0.13553684 -0.77035860 -2.44565486
