11

N -0.6961683 0.4036079 1.9828444
C 0.022019267 -0.26419035 1.0156295
O 0.7368338 -1.2153374 1.2482992
N -0.12147647 0.28515223 -0.25266576
C 0.525624 -0.2281377 -1.3654584
N 0.40359625 0.35137168 -2.4878862
H -0.7317671 -0.086088926 2.864739
H -1.5488532 0.876159 1.7243737
H -0.62333137 1.1496137 -0.39361268
H 1.1010661 -1.1274124 -1.1389353
H 0.9324572 -0.1447376 -3.1973274
