13

C 0.59726914 -1.65880845 0.28799554
N -0.10284989 -0.60228716 -0.46605374
C -0.80424872 0.46871308 0.55355607
O 0.63967475 1.89200243 -0.75075243
C -0.33394310 1.70654675 0.25001113
O -1.55464170 -0.07140818 1.34711128
H -0.85302229 -1.00175288 -1.02941646
H 0.52344157 -0.03349356 -1.04172335
H 0.89871187 -2.47176251 -0.37530811
H 1.46927314 -1.21042392 0.76990068
H -0.62730790 2.56589615 0.84186772
H 0.23834278 2.43631485 -1.44263018
H -0.09069973 -2.01953611 1.05544124
