13

C 0.5838977 -1.5831994 -1.1659832
N 0.22994173 -0.6424826 -0.1261393
C -0.05202309 0.6595578 -0.3779416
O -0.078090124 1.1704856 -1.4836679
C -0.3347611 1.4775147 0.8781274
O -0.56270564 0.6937993 2.0368793
H -0.11016309 -2.4289625 -1.1789848
H 0.53117096 -1.0608251 -2.1222167
H 1.6020843 -1.9605008 -1.0230701
H 0.26364887 -0.91383547 0.8459548
H -1.166017 2.1563058 0.6521621
H 0.5500875 2.0924814 1.078816
H -1.4570711 0.33966175 1.9860634
