13

C 0.42530107 0.6160267 -0.54832274
N -0.48184717 -0.14269052 0.45435232
C -1.9090886 -0.050142754 0.15353966
O -0.051546197 1.430956 -1.2908982
C 1.5644757 -0.26693562 -0.56384844
O 2.1260793 -0.5580078 0.71957076
H -2.2127695 0.9943338 0.055682234
H 0.29793307 -0.9863871 -0.09057775
H 2.7808385 0.121181205 0.9136308
H -2.482789 -0.542203 0.94253355
H 2.2844763 -0.11306987 -1.3691976
H -0.24636202 0.051557977 1.422043
H -2.0947008 -0.55461913 -0.79850763
