11

N 1.369078 -0.66786784 2.5930371
C 0.66078377 -0.67495924 1.6816995
C -0.24233593 -0.6536996 0.51641864
C -0.531441 0.7431197 -0.07488322
C 0.24104308 0.2196297 -1.2923048
O 0.40404695 -1.077465 -0.6832734
H -1.1218816 -1.2636425 0.7478574
H -1.5921786 0.9349819 -0.2422744
H -0.07934421 1.5791656 0.45775768
H -0.3167877 0.16028035 -2.22965
H 1.2090172 0.70045733 -1.4743848
