12

C -0.07355839 -0.00767498 0.23206845
C -0.51172718 0.03759588 -1.21685938
C 0.74366713 1.06180685 0.81181077
O -0.65241500 0.99011677 1.05049328
N 0.01045210 -1.29529227 0.86455409
H 0.77405316 -1.82622455 0.45606285
H 1.06951775 1.89357163 0.18554816
H 1.36894457 0.83158322 1.67227762
H -0.84154019 -1.82112096 0.69453107
H 0.16960162 -0.54484561 -1.84694997
H -1.51809612 -0.38650915 -1.31836328
H -0.53889996 1.06699299 -1.58517356
