12

C 0.4558408 1.1412457 0.7236655
C -0.341746 -0.9719466 0.57959694
C -0.25163832 0.42042127 -0.3523929
O -1.4365673 0.9191054 -0.34358582
N 0.42844164 0.19531083 -1.5972743
H -0.9868851 -1.5854787 -0.047763154
H 1.0923678 0.6412762 1.4556222
H 1.3579973 -0.19864222 -1.4908292
H -0.1399504 -0.3922563 -2.1994872
H -0.8285614 -0.82400066 1.5458502
H 0.642028 -1.4305401 0.6978027
H 0.008673071 2.085505 1.028795
