12

N -0.45555052 -0.45073292 1.9150201
C -0.14240238 -0.13549376 0.5996141
C -0.9284063 0.72229147 -0.17681584
N -0.5970177 1.0812913 -1.4136523
C 0.5413875 0.57897484 -1.8933983
N 1.3681893 -0.24746034 -1.2544718
C 1.0211699 -0.5980547 -0.020894673
H -1.43201 -0.3810124 2.1619377
H -0.038054626 -1.3011042 2.2633498
H -1.8550183 1.1347482 0.21945357
H 0.8211932 0.86926633 -2.9026682
H 1.6965199 -1.2727137 0.50252587
