12

N 1.2204779 0.5779512 -1.4721564
C 0.64408976 1.0834473 -0.30700675
C -0.14356568 0.2921546 0.44830003
N -0.058127083 -1.8467348 -0.86301774
C -0.43661222 -1.1402633 0.10405466
N -0.7180114 0.7114693 1.6229824
C 1.1651309 -0.50968635 -1.9849311
H -1.1009744 -1.5991104 0.8617497
H 0.8702346 2.1192443 -0.078748904
H 0.8357465 -1.5800575 -2.0688167
H -1.5155896 0.1878139 1.9455991
H -0.7627993 1.703772 1.7919916
