12

N -0.5722463 1.84744 0.9820085
C 0.8085791 -0.258289 -0.8498414
C -0.86704654 0.6287732 0.8244106
N 1.342098 0.974018 -1.1685046
C 1.8668704 1.9720497 -1.4984542
N -0.74077165 -1.6950213 0.23487902
C -0.19065352 -0.44015032 0.034778725
H -0.21444827 -2.4832504 -0.11357243
H 1.2468044 -1.0934913 -1.3881987
H -1.7599983 0.26368725 1.3510672
H 0.24070941 2.1439633 0.4544853
H -1.1598969 -1.8597289 1.136942
