10

O 2.2952979 -0.46489623 0.36418226
C 1.0955039 -0.1462353 -0.17775136
C 0.018530788 0.091986135 0.7422739
N -1.5778916 0.37983695 -0.96753615
C -1.3086903 0.07836862 0.2567178
N 0.84522164 0.12060404 -1.3795122
H -2.5165555 0.063145675 -1.2170415
H 0.26613364 0.4749905 1.7287049
H -2.0856593 -0.2022911 0.9765477
H 2.9681087 -0.3955092 -0.32658547
