10

O 0.79627544 1.9338068 -0.7600276
C 0.35426408 0.8902254 -0.37735504
C -0.9295887 0.44252872 0.3265591
N -0.5061784 -0.9564148 0.09606443
C 0.83344245 -0.565046 -0.3885594
H -0.9587495 0.76620877 1.3758641
H -1.8728198 0.7236789 -0.15433137
H -0.49110326 -1.5270841 0.9321769
H 1.6623851 -0.7284571 0.31330183
H 1.1120726 -0.9794461 -1.363693
