10

O -0.19353911 1.08965489 -2.14496863
C 1.10597487 0.21662259 -0.25144619
C -0.95403364 -0.05415160 -0.01933995
N 0.26920024 -0.39818554 0.81143607
C 0.03057410 0.55811807 -1.07098748
H 0.27992700 0.06011701 1.72584798
H -1.61071071 0.63584714 0.51466977
H -1.49769054 -0.95555815 -0.30944458
H 0.38552266 -1.40291193 0.96775907
H 2.18477515 0.25044800 -0.22352611
