10

O -0.35860613 -2.2064807 -0.9102417
C -0.06343312 -1.0938658 -0.50880104
C -0.8819324 -0.08067201 0.35940766
N 0.31622446 0.84716976 0.2678704
C 0.99523294 -0.18729669 -0.55476326
H 0.73448527 1.0625889 1.1767683
H 0.106506824 1.7353677 -0.19411269
H 2.000773 -0.08863151 -0.93540496
H -1.7652771 0.37163234 -0.0962373
H -1.0839736 -0.35981187 1.3955146
