11

O -1.8747555 -0.08420462 -0.104714885
C -0.6231266 0.498454 0.08297413
C 0.27267775 0.07426669 1.264532
O 1.3664558 -0.18436937 0.3388951
C 0.54094917 0.00027794694 -0.7439562
N 0.69931746 -0.26413694 -1.9607147
H -1.751684 -0.9462522 -0.5208744
H -0.7454606 1.5831987 0.023839846
H 0.5485685 0.837657 1.9944472
H -0.052216463 -0.84652835 1.7563711
H 1.6192741 -0.6683628 -2.1307993
