11

N -0.05501557 -1.21587211 0.52041289
C -0.12630718 0.00943641 0.55206147
C 0.68557577 -1.89099214 -0.48111380
N 1.87937962 -1.58706045 -0.76554706
C -0.26625768 1.30843310 0.67525986
N -1.29651230 2.10120295 0.13709950
H -1.62153326 2.80242250 0.79387879
H 0.52827767 1.85142423 1.17871090
H 0.12003802 -2.73559233 -0.89168519
H 2.22484037 -2.20928493 -1.49516745
H -2.07248566 1.56588281 -0.22390983
