11

N 0.054358505 -0.7705118 1.0749688
C 0.82014626 -1.8258106 0.5206838
C -0.11255124 0.28752977 0.47484025
N -1.4543288 1.793578 -0.88475984
C -0.35136455 1.4522022 -0.080733955
N 1.9786149 -1.6491956 0.046129346
H 0.4104236 2.2197676 0.019819101
H -1.8168195 2.7148986 -0.66458863
H -2.1945949 1.1074452 -0.8687
H 2.3533869 -2.539784 -0.27829412
H 0.312729 -2.790119 0.64063513
