9

N 0.30924772 -1.02474338 -0.76943429
C 0.37201605 0.21081764 0.84502535
N -0.52283325 1.08927277 0.15128433
C -0.71575133 -0.34788160 0.03852473
O 1.35646647 -0.35340016 -0.01007472
H 0.35354098 -0.64132289 -1.71686476
H -0.09652912 1.53537834 -0.66053281
H 0.61995810 0.33395956 1.89026178
H -1.67611548 -0.80208028 0.23181029
