9

N -0.2645929 1.1662915 -0.22915396
C -0.59432113 -0.029783018 0.52981234
N -0.25359717 -1.2839929 -0.15752123
C 0.79670113 0.38647553 0.33587465
O 1.0859635 -0.7769236 -0.42669353
H -0.7202264 -1.3528726 -1.0653265
H 1.596963 0.82189465 0.9182401
H -0.33555257 1.0714331 -1.2419516
H -1.3113377 -0.0025225745 1.3367195
