10

N 1.1149106 0.22400087 -0.08481943
C 0.6946148 -0.43393642 1.2841525
C -0.058856986 0.39372975 -0.9380606
C -0.64333725 -0.56476074 1.0606233
C -1.0974696 -0.07969821 -0.242603
H -2.1208026 -0.09638992 -0.6016979
H -1.3236659 -0.9899484 1.7898827
H 1.5817794 1.1021539 0.14469874
H 1.8260179 -0.38591227 -0.48952737
H 0.026809447 0.8307614 -1.9226487
