10

N 1.12555662 -0.03499626 -0.17970542
C -0.06503549 -0.51877197 -0.87469479
C 0.70937337 0.71774824 1.14081773
C -0.64346948 0.57888678 1.05289902
C -1.10984901 -0.14538764 -0.12940269
H 0.01552979 -1.06230795 -1.80519305
H 1.76115114 -0.78130132 0.10402774
H 1.67821025 0.62398411 -0.72935680
H -1.32598958 0.97623533 1.79568522
H -2.14547735 -0.35408926 -0.37507679
