10

N -0.15731291 -0.75049955 -0.84489864
C 1.060596 -0.28664517 -0.41850218
C 0.8350935 0.5963087 0.60985625
C -0.5719504 0.6648979 0.80927455
C -1.1569245 -0.17788027 -0.10398654
H -0.29570583 -1.4117796 -1.5893844
H 1.9772055 -0.6227162 -0.8800092
H 1.5906985 1.1369967 1.1621087
H -1.0875206 1.2684122 1.5432528
H -2.194179 -0.41709465 -0.28771117
