11

O -0.91919535 1.53160504 1.14616523
C -0.58521442 -0.12884766 -1.22293662
C -0.43494697 0.56577614 1.66010413
O 0.34101265 -0.37063373 1.06042492
C 0.59215764 -0.33418379 -0.32290512
N 1.74950306 -0.58087130 -0.74635709
H -1.38862407 -0.81946680 -0.94782112
H -0.96580907 0.89046246 -1.13004701
H -0.52750257 0.29503135 2.72094317
H 2.40103236 -0.72215703 0.02582067
H -0.26241330 -0.32671491 -2.24339117
