11

O 1.2886027 0.12050878 0.0055931527
C 0.33427182 -0.6440271 -0.6107522
C -0.9267609 -0.2618166 0.11029426
O 0.0713268 2.0904286 0.51304483
C 0.44748455 0.89264417 0.83004296
N 0.49343386 -1.4473037 -1.5626606
H 1.4721957 -1.4896569 -1.8478291
H -1.788499 -0.15463144 -0.56926495
H -0.79609454 1.1780597 0.29948255
H -1.1846021 -0.9239115 0.94141495
H 0.58864105 0.639706 1.8906338
