17

C -1.9623076 0.85084736 0.034707233
N -0.7608796 0.35311723 0.6497072
C 0.2792023 -0.09255103 0.009447132
O 1.2605731 -0.44067642 0.7419074
N 0.38049012 -0.15576097 -1.352656
C 1.5082414 -0.8145216 -1.9759655
C 0.30490544 0.06888759 2.4043558
H -0.4893118 -0.14983019 -1.8577495
H 1.5396429 -0.545092 -3.0326993
H -2.436513 0.10219411 -0.61749464
H -0.6905765 -0.08204398 2.8162272
H -2.6856203 1.0885515 0.82528216
H -1.7951546 1.7716374 -0.544937
H 2.4261198 -0.46891096 -1.4960431
H 0.65371895 1.0908358 2.4923625
H 1.0063686 -0.6706445 2.7835598
H 1.4611005 -1.9060395 -1.8800119
