17

C -1.8550255 -0.46544418 -1.3797601
N -0.85747224 0.49045035 -0.94661593
C 0.87927353 2.2715676 -0.15389094
O 0.89221644 0.9733925 0.43053994
N -0.0074958378 -1.0751387 0.6401529
C -0.047389872 0.13245375 -0.028442962
C 1.0975541 -1.4640574 1.496819
H -2.481403 0.013464263 -2.137503
H 1.7034594 2.8049564 0.323741
H -2.517049 -0.7951127 -0.5646665
H 1.2928201 -0.6781904 2.2291322
H -0.0691847 2.7792299 0.041544084
H -1.4117917 -1.3583828 -1.8492428
H 0.80927104 -2.3710957 2.0346358
H 1.0293375 2.2197108 -1.235525
H 2.023067 -1.6577759 0.9403625
H -0.48018676 -1.8200277 0.15872006
