17

C -1.5324938 2.2387142 0.13873859
N -0.6649328 1.1765976 -0.3391448
C -0.11076675 0.319879 0.59409523
O -0.22451869 0.52375954 1.7948749
N 0.605204 -0.7406575 0.07965567
C 1.0445311 -1.7866398 0.9796069
C 0.8333704 -0.93744016 -1.3377141
H -2.4648588 1.8617487 0.57901865
H -1.0081842 2.8074439 0.91080177
H -1.7672205 2.9059043 -0.69246304
H -0.93387544 0.7689204 -1.2227188
H 0.52931917 -2.7360535 0.7765299
H 0.8241911 -1.4716626 1.998615
H 2.124083 -1.9534018 0.8803849
H 0.9964035 0.025311533 -1.834294
H 1.7410353 -1.534958 -1.4706793
H 0.008713354 -1.4674658 -1.8353074
