11

N 1.0186512 -1.5789573 0.07274412
C 0.25290743 -0.50332934 0.07348336
C -0.5022504 1.0326654 -1.039088
O 0.67289066 1.0822846 -0.3058979
C 0.120741166 -0.18171827 1.4544392
O -0.8452648 -0.3330141 -0.75724506
H 1.0242746 -0.13663076 2.0517159
H -0.84945536 -0.056762144 1.934693
H 0.7413961 -2.2047338 -0.6837372
H -0.3521359 1.1605928 -2.1180446
H -1.2817545 1.7196034 -0.6830628
