11

N 1.3802936 -0.7145815 0.82827395
C 1.7398903 -0.99127483 -0.40243083
C 0.14685412 -0.18514705 1.3446362
N -1.3576396 0.92123944 -1.3714267
C -1.2778027 -0.16119604 -0.5967823
N -0.8529408 0.0733894 0.63488215
H 0.12294126 -0.06443428 2.4262662
H -1.1124088 1.8623027 -1.0770129
H 2.0471182 -0.9185877 1.5658203
H -1.7470652 0.8267362 -2.2941804
H 0.9107596 -0.6484464 -1.0580455
