11

N -0.70941865 0.20546604 0.76842583
C 0.16957189 -0.55576600 1.23541962
C 1.19737576 -1.40259949 -0.87795250
N 1.06617479 -1.33572152 0.42543420
C -1.28568599 0.45134139 -0.39776307
N -1.00909454 1.65055400 -0.91108628
H -0.40338939 2.34026978 -0.47539016
H 0.27721217 -0.70974638 2.30769313
H 1.66095811 -1.93819015 0.98535611
H 0.51190985 -0.63858838 -1.30367911
H -1.47561394 1.93298056 -1.75645746
