10

N 0.9648179 0.37315148 -0.88052845
C -0.24473178 -0.7597237 0.69552016
N -0.8992187 1.5173167 -0.09872742
O 1.9350007 -0.6029763 -0.11234455
C 0.8447929 -1.3195235 -0.06560796
C -0.124081224 0.42864165 0.011208554
H -0.9336327 -1.1872506 1.4034204
H 0.8535081 -2.2828293 -0.58861053
H -0.59338576 2.262767 -0.7052836
H -1.8030696 1.5704267 0.34095323
