10

N -0.32361063 -1.0029 -1.5087215
C -0.07499666 -0.4419432 -0.26968205
N -0.035534684 -1.1741668 0.8148351
O 0.31282288 -0.30416533 1.8402601
C 0.4534564 0.92239594 1.3360947
C 0.22620146 0.9301861 0.003451583
H -0.8851253 -0.42828503 -2.1198406
H -0.67461383 -1.9494224 -1.4508301
H 0.72301716 1.6931312 2.0445223
H 0.2783831 1.7551693 -0.69009006
