10

N -0.77549172 -0.75881443 -1.22019933
C -0.10933570 -0.44347837 -0.07402837
N 0.23939296 -1.30583945 0.80317577
O 0.84593061 -0.47257572 1.89185723
C 0.87008797 0.79408260 1.67388973
C 0.21773557 0.96821240 0.32567544
H -0.70023016 -0.11989227 -1.99406113
H -0.81205170 -1.73691124 -1.46470930
H -0.67659599 1.59645108 0.42037739
H 0.90055799 1.47876545 -0.36197750
