10

N -0.99455106 0.3189118 -1.2550843
C 1.0781314 -0.5457127 1.6520767
N -0.42500436 -1.48911 0.09767134
O 0.45953578 -1.616613 1.3013222
C 0.63119036 0.501785 0.66386676
C -0.30033547 -0.26115456 -0.23601793
H 1.4976319 0.92950165 0.14800344
H 0.12905452 1.3232095 1.189797
H -0.6026008 1.1450663 -1.6753124
H -1.4730525 -0.30588382 -1.8863227
