9

O 0.8371212 -1.7243173 -0.6217082
C 0.27396557 -0.5732647 -0.21552327
N -0.6586607 0.06941209 -0.89793146
N -0.90686977 1.1247702 -0.12408659
N -0.21636458 1.212467 0.9902546
C 0.5596461 0.13122448 0.96666706
H 0.4443824 -1.9617662 -1.4714047
H -1.5919526 1.8156109 -0.3822841
H 1.2587323 -0.09413641 1.7560166
