10

N -0.02289749 0.87877033 1.66623442
C 0.52559550 0.63191346 -0.47813890
N 0.56904066 1.43522451 0.61901968
N -0.46473619 -1.67131457 -0.66307325
N -0.47294481 -0.27704726 1.28318705
C -0.15452469 -0.47493922 -0.02488840
H 0.98241918 2.34892677 0.71614646
H 0.97025317 0.90067211 -1.42229150
H -0.82906034 -1.55454101 -1.59761880
H -1.10314493 -2.21766546 -0.09857662
