10

N -0.7380597 1.4882276 0.085489824
C 0.21668133 0.7501309 -0.5427107
N -0.76905966 -0.3592997 1.1074529
N -1.313798 0.81854117 1.0737895
N 0.96380377 -1.5874552 0.0025564125
C 0.18085636 -0.44563693 0.1369791
H -1.0321194 2.4329445 -0.104789205
H 1.1001738 -1.8802719 -0.95421165
H 0.80980814 1.1276889 -1.3594275
H 0.5817134 -2.3448696 0.5548714
