9

O 0.8369066 -1.7213143 -0.62213737
C 0.27300063 -0.5739005 -0.21534634
N -0.65999675 0.06682038 -0.8975394
N -0.90625685 1.1228222 -0.12506916
N -0.2148689 1.2127498 0.989977
C 0.56145483 0.13289301 0.96765983
H 0.44116655 -1.9612314 -1.4705822
H -1.5938598 1.8118854 -0.38269642
H 1.2624536 -0.09072473 1.755734
