10

C 0.42475499 0.27331906 1.12880278
C 0.34362814 1.23729036 0.20603365
N -0.09255256 -0.57660074 -1.53801573
C -0.63654783 0.39549543 -0.56573978
N -0.53726468 -0.63627218 0.53007159
C 0.01668678 -1.39582917 -0.55987287
H 0.94947553 0.09625129 2.06115908
H 0.74900061 2.22916624 0.06851253
H -1.62881968 0.78512527 -0.80025325
H 0.41163864 -2.40794551 -0.53069787
