10

C 0.8190128 -0.09435115 0.7839885
C 0.44630915 1.1361276 0.26295736
N -0.51182574 1.2605947 -0.65641445
C -1.0926938 0.12675373 -1.0451362
N -0.8229456 -1.1071422 -0.62018824
C 0.13895015 -1.2042139 0.2981987
H 1.5999912 -0.18489972 1.5303667
H 0.9290405 2.0557556 0.58851177
H -1.8760357 0.2175839 -1.7951554
H 0.37019697 -2.2062085 0.6528714
