11

N 0.6931241 0.75183594 0.60380876
C 0.46345124 0.11866894 -0.61256456
C -0.27455547 0.35120404 1.5116988
N 1.2047142 0.2852658 -1.6267734
C -0.7880086 -0.708815 -0.33097002
N -1.1428455 -0.47158358 1.0700492
H -0.25863633 0.73805386 2.5269673
H -1.6166242 -0.4089418 -0.9837141
H 1.4617232 1.3827951 0.7613375
H 0.86494106 -0.26255852 -2.415061
H -0.60728353 -1.7759249 -0.50477856
