11

N 0.81430393 -0.9042087 1.7782212
C 0.7671922 0.7622924 -0.14315781
C 0.3792697 -0.30691874 0.7302982
N -0.850438 -0.7180098 0.14056513
C -1.1862947 0.0439553 -0.91765416
N -0.29220882 0.99320596 -1.1378285
H 1.4684364 1.5606624 0.036284953
H 0.6714048 0.6239212 -1.5959532
H -1.4053931 -1.4430461 0.56714857
H -2.060164 -0.12284796 -1.5299655
H 1.6938921 -0.48900583 2.0720413
