13

C -0.1726213 0.08881408 0.58749396
N -0.8048258 -0.9742823 0.84980744
C -0.93119377 -1.9586793 -0.2084652
O -0.020367937 1.0560313 1.5161011
C 1.0944879 1.6213831 -0.712258
O 0.39759398 0.3802458 -0.5856652
H -0.47054222 0.70071524 2.2964973
H -1.3893472 -1.538735 -1.1121492
H -1.5649052 -2.7747006 0.1517391
H 1.4593922 1.6342524 -1.7391224
H 1.9350013 1.6743951 -0.013075723
H 0.041578677 -2.378939 -0.4912163
H 0.4257496 2.4694993 -0.5396871
