13

C -0.20922205 0.30577928 -0.039990537
N 0.2197197 1.5131052 0.11984463
C 2.0553975 0.6267456 0.6561243
O -1.4768487 0.09027554 -0.45061445
C -1.8440386 -1.2752296 -0.59603614
O 0.57638186 -0.6699096 0.1832252
H -0.41324556 2.2784092 -0.093098395
H -1.7174478 -1.8160944 0.34493244
H -1.2390093 -1.7597853 -1.3662441
H 2.4999256 0.662868 -0.32843935
H 2.3247995 -0.24217322 1.2430807
H 2.117999 1.5518241 1.2167065
H -2.8944118 -1.2658145 -0.88949084
