13

C 0.58557355 -1.5831118 -1.1677485
N 0.23442182 -0.64221454 -0.12575676
C -0.05159639 0.6600316 -0.3783119
O -0.07686501 1.1693227 -1.4825634
C -0.3359722 1.4772297 0.87882704
O -0.56679296 0.6938661 2.0360873
H -0.114370875 -2.4247336 -1.1835536
H 0.53794056 -1.0554607 -2.1210194
H 1.6007568 -1.9656678 -1.02179
H 0.2703103 -0.91761506 0.8452585
H -1.169031 2.154746 0.65190136
H 0.54615915 2.092838 1.0838236
H -1.4605337 0.34076908 1.9848455
