10

O 0.25980244 -0.63137175 -0.85303531
C 1.03140135 -1.21723988 0.09294116
C -0.36616954 0.36480053 -0.20448567
N -0.06431902 0.46202337 1.05141265
O -1.55196165 1.12363700 -2.11673653
C -1.30375372 1.23536077 -0.94233327
C 0.84149895 -0.55616494 1.26079565
H 1.62763443 -2.05767293 -0.22238393
H -1.75599007 2.00861537 -0.29587150
H 1.28185689 -0.73198779 2.22969631
