10

O -0.42270187 0.13614756 -2.8203733
C -0.050167605 0.27679643 -0.47941726
C -0.20908508 0.8134199 -1.846216
N 0.19286333 0.96987444 0.58755296
O -0.15404683 -1.046639 -0.27315402
C 0.043674927 -1.197081 1.0579174
C 0.25745973 0.029374976 1.5937055
H -0.00058925577 -2.2028508 1.4422601
H 0.45082307 0.30797353 2.6177127
H -0.10823046 1.9129839 -1.8799882
