11

N 0.17712118 1.44818064 -0.69893857
C 0.68309412 -0.47073927 1.28424615
O -0.49366218 -0.73357238 -0.84046665
C -0.63796647 -0.71009980 0.57524889
C -0.09524490 0.42280717 -1.38870729
O 0.74330213 -0.16318991 2.44581134
H 1.58332664 -0.66699306 0.66598078
H -1.00682152 -1.70602900 0.83994144
H -0.04917123 0.31311885 -2.47488038
H 0.45567636 2.21877786 -1.29764969
H -1.35965345 0.04773883 0.88941410
