11

C -0.65744484 0.36441711 0.48808302
C 0.58918692 -1.49490661 -0.66954649
C -0.07369823 -1.05696484 0.56067347
O -1.64418353 0.62283252 1.12968297
C 0.08405363 1.37266836 -0.35252172
N 1.10347383 -1.81795241 -1.65029943
H -0.00596827 1.10507748 -1.41035529
H -0.87634853 -1.75198092 0.82557175
H -0.32848544 2.36820234 -0.18760314
H 1.15279661 1.36073798 -0.11230301
H 0.65661795 -1.07213076 1.37861796
