11

C 0.6424219 0.35860085 -1.2141888
C -1.1804036 -1.1859078 0.48005167
C 0.32527563 0.81377506 0.18768194
O 0.57069135 1.9169691 0.60579234
C -0.2978422 -0.2213352 1.1398516
N -1.8728997 -1.9324852 -0.061979022
H 1.1906102 -0.58964944 -1.1949563
H 0.5247014 -0.76663494 1.6180724
H -0.84030277 0.30984056 1.9279219
H -0.28903335 0.1751336 -1.75958
H 1.226781 1.1216936 -1.7286676
