12

C 1.09257583 0.41373686 -0.71301081
C -0.43473896 0.17335720 1.03053777
N 0.94729602 0.43189262 0.66881416
N -0.09055568 -0.09931371 -1.22984744
C -0.89159091 -0.67848616 -0.16416166
O 2.05873938 0.77774108 -1.34419407
H 1.48923605 1.12588688 1.16217010
H -0.01770017 -0.55949535 -2.12540927
H -0.51965997 -0.36444636 1.97828598
H -1.02170456 1.09838712 1.08886224
H -1.96289592 -0.58313582 -0.35399522
H -0.64900089 -1.73612454 0.00194845
