9

O 1.2386631 0.64006835 0.99078375
C 0.63407886 -0.18500851 0.09732306
C -0.31619674 -1.353322 1.1571951
C -1.3692287 0.84382683 -1.3040752
C -0.4813823 0.35978937 -0.65776175
N 0.49018174 -2.0270278 0.5960159
H -2.1607337 1.2733369 -1.8778081
H 1.4027948 -0.5679127 -0.56972164
H 0.56182325 1.0162495 1.568049
