9

O -1.3203392 -0.6594129 0.8843619
C -0.5984525 0.29869244 0.15432423
C 0.8612516 0.19547452 0.33788192
C 2.0445166 0.07765911 0.50857157
C -0.92898184 0.23054942 -1.2947892
N -1.2052102 0.14769505 -2.412218
H -1.0049648 -1.5379027 0.63620716
H -0.9463195 1.2679563 0.52593696
H 3.0985 -0.020711334 0.65972376
