11

O 0.84749043 -0.5878772 1.6596799
C 0.539633 0.07542062 0.4810782
C -0.7154293 0.22629873 -0.20240502
O -0.38882732 -0.24785183 -1.4146763
C 0.96268624 -0.5546158 -0.86671996
N -1.554352 1.1048089 0.2589447
H -0.3619041 1.3724222 0.79349947
H 1.7109854 -0.03789139 -1.4749044
H 0.14908044 -1.1899823 1.9236143
H 1.1232262 -1.6393698 -0.8631788
H -2.3125892 1.478638 -0.2949322
