11

O 0.51619158 1.05339208 -0.49146484
C 1.04665783 0.17391453 -1.52810878
C -0.17866344 0.34600212 0.31067107
O 1.08175528 -1.08064545 -0.85617098
C -0.10472711 -1.10123229 -0.09908142
N -1.08892699 0.92164278 1.13249093
H 2.07812108 0.49940787 -1.70771669
H -0.03393709 -1.80278087 0.73682304
H -1.33335981 0.42392681 1.97638561
H -1.00151432 1.92464552 1.25025511
H -0.98159701 -1.35827305 -0.72408344
