10

C -0.3085185 -1.0755321 0.92714816
C 0.8113553 0.3575851 0.46596557
N -0.22982666 -1.06176 -0.46632946
C -0.49710038 0.16039173 -1.0932752
N 0.19097921 -0.076057315 1.6039242
C 0.08754883 1.2076665 -0.47739083
H -0.7775254 -1.9319894 1.4116852
H -1.101539 0.16082719 -2.0003924
H 1.8055934 -0.021026725 0.20401855
H 0.019033229 2.279895 -0.575354
