10

C 0.3813266 0.35104406 -1.1228817
C 0.42789093 -0.091742046 0.8290527
N -0.9556488 -0.28646922 1.3122609
C 0.69939864 1.0953505 -0.059010405
N 0.120377176 -0.8908938 -0.41310078
C -1.1774708 -0.9082036 0.21502893
H 0.32536766 0.4676829 -2.1995623
H -2.0918937 -1.3541147 -0.16903365
H 1.209596 -0.48025203 1.4849019
H 1.0610564 2.0975978 0.12234459
