11

O -0.8644287 1.9591296 -0.059798352
C 0.35397357 -1.2261978 -0.45768246
C -0.5560084 0.69005084 0.4318354
C 1.2713622 -0.5356787 0.47233412
C -0.743565 -0.47030804 -0.52346796
N 0.80993253 0.562493 0.9445001
H 0.5681986 -2.1546829 -0.97211254
H -0.23824923 2.1647 -0.76618457
H 2.2653942 -0.8923657 0.730254
H -1.219026 0.53977466 1.2953739
H -1.6475836 -0.63691515 -1.0950518
