11

O -0.1284701 0.52820647 -2.1695035
C 0.36121312 -1.0556089 0.902215
C -0.16358559 0.17273182 -0.85011846
C -0.28823566 1.0071156 0.27550486
C 0.040002253 0.22105177 1.375896
N 0.29593188 -1.1307136 -0.44510242
H 0.013712197 0.52569586 2.4132402
H 0.5725111 -1.9465952 1.4786099
H -0.5758759 2.0500288 0.24811384
H 0.7910078 0.488283 -2.4672685
H -0.918211 -0.86019534 -0.76158744
