9

O 0.41692698 -1.1884909 0.17250238
C 1.1801249 -0.048428886 0.3663715
C 0.77461094 1.1961623 0.19935767
C -0.82756686 -1.0577112 -0.21749543
C -1.9723804 -1.0218029 -0.5753596
H -2.9907978 -0.98873186 -0.8929435
H 1.4771085 2.000123 0.38161296
H 2.1725075 -0.34685838 0.67807204
H -0.23053393 1.4557388 -0.11211805
