9

O 1.2990247 -0.13805763 -0.44477996
C -0.37818062 -0.23066041 0.90749896
C 0.9249614 -0.67792976 0.693712
C -0.483778 0.88441896 -1.8368
C -0.0023786162 0.31748936 -0.8234534
H -1.110867 -0.84234303 1.4351728
H 1.6013039 -1.38297 1.1626563
H -0.44390166 0.8288289 1.1624779
H -1.4061842 1.2412236 -2.2564847
