12

N 0.47631539 -1.63068776 0.32622171
C -1.15454530 0.46749611 0.69600465
O 2.29995317 -0.37687817 -0.33344413
N 0.26638228 0.63958765 0.10122990
C -0.95984578 0.76261267 -0.73502361
C 1.15165344 -0.52321636 -0.00093896
H -0.44789207 -1.42404597 0.74175835
H -1.32916539 1.38576873 1.26988514
H -1.04091224 1.75888143 -1.17907298
H 0.81876209 1.48632653 0.19069735
H -1.05443188 -0.04111272 -1.46665242
H 0.97372640 -2.50473207 0.38933439
