12

N -0.28704667 -0.8356418 1.7675935
C 0.10006226 0.29336995 1.0858114
O 0.84975356 1.1351199 1.5305599
N -0.49514246 0.37322626 -0.18430132
C 0.267098 0.9366269 -1.2728946
C -0.072114386 -0.51178956 -1.2568761
H -1.1384873 -1.2911838 1.4787984
H -0.09810481 -0.82341933 2.7586505
H -0.28034595 1.6137092 -1.9220717
H 1.2943276 1.218327 -1.0558504
H -0.8711021 -0.89606136 -1.887616
H 0.73110235 -1.2122833 -1.0418042
