12

N 1.8997852 1.3164448 1.7278509
C -0.84043336 -0.6605371 0.65004545
C 0.20018116 -0.90950066 -1.2604954
C -0.2109835 0.71680456 0.27730224
N 0.17533557 0.4751747 -1.1131935
C 0.9639661 1.0531764 1.105383
N -0.35275033 -1.6082034 -0.3525744
H 0.63836455 -1.3332167 -2.1596053
H -0.5638127 -0.9836987 1.6569312
H 0.9552789 1.0063294 -1.4773402
H -0.93240273 1.534671 0.34911847
H -1.9325287 -0.6074443 0.5965774
