12

N -0.929353 2.0812547 1.7887084
C -0.8579229 1.2764364 0.9636106
C -0.7603031 0.22308211 -0.06774737
C 0.39541212 0.47431713 -1.085508
N 1.4851575 -0.41325912 -0.6784388
C 1.0059127 -1.1956887 0.19762903
N -0.34872365 -1.0557812 0.5088695
H -1.7320411 0.13664927 -0.561888
H 0.075901926 0.21467206 -2.099563
H 0.72800714 1.5151361 -1.0905664
H 1.5762731 -1.990713 0.6708229
H -0.6383208 -1.2661055 1.454071
