13

N -0.06316719 -3.0641205 0.8600714
C 0.8732846 0.33463633 0.34102118
C -0.042827055 -2.0017054 0.38741636
N 0.63904154 1.5974923 -0.3801295
C -0.029251957 -0.72348404 -0.22669981
N -1.5204365 -0.17118397 -0.3124341
H 1.9115754 -0.027350001 0.30183834
H -0.99268806 -0.67077744 -1.2052813
H 0.6290263 0.54100126 1.3976455
H -2.1659012 -0.5302019 0.3909089
H 1.1255783 2.3612397 0.08504613
H 1.0535424 1.5140775 -1.3066165
H -1.4177763 0.84037626 -0.33278653
