13

N -0.60641265 -0.86382896 -1.4392244
C 0.43965238 -0.041019797 -0.83963984
C -0.08180684 0.5490892 0.48029628
N -0.5288538 -0.5322092 1.3495014
C 0.9882788 1.3202548 1.1370776
N 1.821455 1.9456534 1.6374799
H -0.5152291 -0.879838 -2.4495144
H -0.51038265 -1.8249075 -1.1303247
H 0.6907347 0.7832474 -1.516001
H 1.3626214 -0.5978655 -0.6237652
H -0.887003 1.2591848 0.23261805
H -1.3472307 -0.94551814 0.9115934
H -0.8258238 -0.17224237 2.2499025
