11

O -0.5753802 1.6818088 0.41055697
C -0.99344826 0.61226684 -0.80720043
C 0.18925385 -0.036443267 -1.0930892
C -1.2636331 0.6161565 0.67657715
N 0.988179 -0.49299476 -0.03802853
C 0.5180537 -0.6134336 1.2403021
N -0.6884493 -0.2982986 1.5632207
H 0.46763715 -0.3784081 -2.0822873
H -1.7067647 0.9316579 -1.5508989
H 1.8779026 -0.90674144 -0.25868917
H 1.1866494 -1.1155705 1.9395366
