11

O -0.27801174 1.6395026 2.1684663
C -0.21647386 0.86837125 1.2348927
C 0.7517097 1.0198888 0.13684972
C 0.7808272 0.13437222 -0.8737432
N -0.10301794 -0.9205573 -0.8807034
C -0.99351186 -1.0417206 0.1518015
N -1.0885724 -0.244602 1.1503557
H 1.435498 1.8584425 0.16903746
H 1.468366 0.18484911 -1.7107139
H -0.09882427 -1.5979038 -1.6258637
H -1.657989 -1.9006428 0.07962103
