10

O 1.4240036 1.0369031 0.7051682
C -0.7100321 -0.054167084 1.025758
C 0.46999246 -0.12951972 -1.1115731
N 0.6128207 -0.62307084 -2.224143
N -1.7729957 -0.59109986 0.58624244
C 0.43147016 0.25433797 0.15092748
H -0.5286532 0.2348483 2.068581
H 2.2828271 0.689778 0.43525177
H 0.21938424 -0.07184297 -2.9853745
H -2.428817 -0.7461668 1.3491616
