10

C 0.4185048 -0.29024622 0.9629197
C 0.4623662 1.0004177 0.54553205
N -1.4911237 -0.6585176 -0.64916295
N -1.3774846 0.569419 -0.9833934
C 0.00078407075 0.74490887 -0.80986154
C -0.2203785 -1.0473446 -0.09328531
H 0.0071674366 -2.0975049 -0.2679156
H 0.72720283 1.920513 1.0492338
H 0.6837897 0.58809674 -1.6440669
H 0.78917164 -0.729742 1.8899999
