10

C -0.22522566 0.97488785 -0.3699387
C -0.6294119 -0.038661495 -1.2341285
N -0.45446616 -1.3356422 -0.9877621
N 0.1320583 -1.7119613 0.13739116
C 0.54178077 -0.78702134 1.0055065
C 0.3896446 0.58257866 0.80435973
H -0.39041588 2.018544 -0.6175395
H -1.1188065 0.18181543 -2.1804972
H 1.0127807 -1.1802939 1.9018323
H 0.74206185 1.2957542 1.5407764
