9

N -2.2978995 0.34864604 0.31419027
C -1.3508021 0.23303272 -0.42132786
O 0.4023533 0.16567032 1.121084
C -0.5851712 0.15922716 -1.5064979
O 1.6891713 -0.42623863 -0.67414385
C 1.4346733 -0.23928869 0.5827493
N 0.56013775 -0.020151934 -1.9370179
H 2.3192859 -0.4909528 1.2024679
H -2.1717484 0.27005586 1.3184965
