9

N -0.64500496 -2.55296931 1.08871347
C -0.05602197 -1.47666284 0.88717618
O -0.20863297 0.53997225 -1.64742458
C 0.03421177 1.57261939 -1.08996016
O 0.76797283 1.73147961 0.04092281
C 0.65139467 -0.42358229 0.71947539
N 1.40363274 0.56633874 0.58208011
H -1.63098105 -2.52573749 0.81854510
H -0.31657083 2.56854199 -1.39952836
