9

N -0.69611615 -1.7308805 0.719225
C -0.039450042 -0.75871027 0.2660754
O -0.4610047 -0.009078455 -0.8172467
C -0.3096274 1.3512285 -0.7815
O 0.066993214 1.9751744 0.1631861
C 1.2839386 -0.4659166 0.7885467
N 2.3520947 -0.28597713 1.1905049
H -1.5861344 -1.8246323 0.23043396
H -0.6106936 1.7487924 -1.7592254
