9

N 1.10585 -0.98037255 -2.1868079
C 0.89624876 -0.5112797 -1.1525892
C 0.6164615 0.051204223 0.15541342
C -0.70879155 0.6915828 0.38010114
N -0.39248428 -0.5776029 1.0048269
H 1.4909574 0.4243329 0.6801261
H -0.76618236 1.5417675 1.05318
H -1.4030957 0.71122426 -0.4564805
H -0.8389638 -1.3508563 0.5222302
