11

N -1.3276812 0.0966166 0.39005983
C 0.22484158 0.32678607 -1.0463096
C 0.08716013 0.3007663 0.8505847
C -1.310545 0.07716812 -0.9275207
C 0.79457855 -0.72295415 -0.056413595
O 0.48190245 1.3453084 -0.020599386
H 0.661893 0.55471545 -2.014531
H 1.8822979 -0.6822852 0.013973383
H -2.1416273 -0.02736349 0.974738
H 0.23337978 0.47681314 1.9157884
H 0.4138003 -1.7455711 -0.079770066
