11

N -0.7310994 -0.2082299 1.5860118
C -0.16522646 -0.42191973 -0.94032437
C -1.2235072 0.74703383 0.9781224
C 0.9005006 -0.4870589 0.13156265
C -0.31093615 0.9835902 -0.33050007
O 1.0305578 0.87788033 0.12296945
H 0.28835458 -0.3332329 -1.9328505
H -0.08104747 -0.8608778 1.9841065
H -1.0095155 -1.1120584 -0.93552494
H 1.8084302 -1.0770313 0.23282146
H -0.50651085 1.8919045 -0.89639455
