10

O -0.4762876 0.32900855 -1.9525361
C 0.06919932 -0.5136083 1.3951762
C -0.11418516 -0.9916533 0.1144731
C -0.053726226 0.17316063 -0.6780697
N 0.13308372 1.3000073 0.19356704
N 0.24662559 0.8270464 1.4255989
H 1.0857776 0.6992459 -0.5101389
H -0.27885923 -2.0006135 -0.23164287
H 0.109593794 -1.0800924 2.317184
H -0.7212218 1.2574989 -2.0736115
