10

O 0.33369905 -1.3225399 -1.4425614
C -0.13755819 1.2053967 0.781225
C -0.7924712 0.4097871 -0.058785226
C 0.035506856 -0.835186 -0.17172189
N 1.2407467 -0.5163913 0.63643473
N 1.1032671 0.59646034 1.1903775
H -1.7467613 0.5654012 -0.5427615
H -0.38646656 2.1853817 1.1676267
H 0.8004928 -0.62911505 -1.9280176
H -0.45045534 -1.6591947 0.3681834
