10

O 0.86627416 -0.46869822 -1.65191076
C 0.54715991 0.72064211 0.51817096
C -1.19108260 -0.66933702 -0.35150580
N -1.52862475 0.22661735 0.53345774
C 0.31844638 -0.49142141 -0.36086477
N -0.52561504 1.10663329 1.08556131
H 1.49355365 1.20820358 0.73002086
H -2.46491702 0.41469151 0.86083369
H 1.80266090 -0.68715612 -1.59177086
H 0.68214426 -1.36017512 0.22800773
