17

C -2.4833221 -0.9257738 0.59624803
N -1.3251649 -0.42224362 -0.1174011
C -0.26407722 0.06865134 0.6251982
O -0.349515 0.21269402 1.8368707
N 0.85632324 0.42178774 -0.091842815
C 2.0685322 0.76057136 0.62539285
C 0.9359432 0.34868088 -1.5373793
H -2.2669003 -1.8305674 1.1793661
H -2.8383167 -0.1604454 1.2910557
H -3.276807 -1.1414324 -0.12272459
H -1.0903914 -0.9298443 -0.9573748
H 2.8553298 0.011870741 0.45779765
H 1.8362063 0.80225945 1.689046
H 2.449311 1.7356205 0.29957682
H -0.018081157 0.6420471 -1.9863225
H 1.6947984 1.0562236 -1.8862976
H 1.2161316 -0.6500998 -1.901209
