17

C 2.100255 0.1798691 1.2084255
N -1.0210016 0.39887935 -0.900204
C -1.4110181 1.6876655 -1.4342742
O 0.90794086 1.2306756 0.022853054
N 0.3604795 -0.7865893 0.5927614
C 0.07077506 0.27610666 -0.09308656
C -0.31655782 -2.0525198 0.4951885
H -0.47050035 -2.372731 -0.5461177
H 0.30306086 -2.817996 0.97889495
H -2.1041567 1.5368387 -2.2636077
H -1.7528894 -0.27235302 -0.7428198
H -1.880848 2.3371284 -0.6841924
H 2.7984343 0.9138472 0.809206
H 2.5086312 -0.8277251 1.1642065
H -0.51478446 2.1896093 -1.8054147
H -1.2889644 -2.0592895 1.0120564
H 1.7111442 0.4385847 2.1861253
