11

C -0.21547528 -1.0732483 1.2452333
C 1.4035126 0.35955295 -0.026948009
C -1.0969137 0.17972428 -0.74755067
O 0.5873662 1.1661236 0.80428386
C 0.010059238 -0.01027467 0.26451012
N -0.4170797 -1.9296378 1.9928719
H 2.218435 -0.15275426 0.4778759
H 1.6262741 0.77248675 -1.0104617
H -0.82843536 0.98524046 -1.435723
H -2.0317755 0.44276828 -0.2457295
H -1.255968 -0.73998135 -1.3183619
