11

C -0.43825945 -1.3802395 -0.568262
C -0.51340944 0.014612564 0.037218902
C 0.843394 0.64491874 0.22628097
O 1.8976624 0.14186284 -0.056104116
C 0.8117658 2.010575 0.8190528
N 0.7770766 3.0689049 1.2784989
H 0.046622194 -1.3594522 -1.5484217
H -1.445044 -1.7885331 -0.6890748
H 0.13557026 -2.0570614 0.0705895
H -1.0095171 0.0072213723 1.0168058
H -1.1058611 0.69719106 -0.5865842
