11

C 0.49512765 0.74005969 1.39859134
C -1.28625550 0.22545872 -0.29844191
C 1.09255422 -0.83190277 -0.46272593
O 1.10976353 0.50571024 -0.92973004
C 0.17551395 0.17938423 0.08478510
N 0.71036660 1.17435907 2.44647827
H 0.68534302 -1.56697830 -1.15646883
H -1.89037941 -0.32510992 0.42880677
H 1.96702609 -1.13696523 0.10616791
H -1.63972918 1.25936010 -0.33141914
H -1.41933080 -0.22337554 -1.28604348
