10

O 1.036907 0.06443492 -2.0871403
C 0.44808653 0.08974742 -1.0722727
C -0.44429374 0.95453215 -0.21110207
C 0.98281467 -0.6399483 0.73391956
O -0.16074 -1.20775 -0.31894177
C -0.43034455 -0.22757167 0.7377665
H -1.220743 -0.5162521 1.4238449
H 1.171193 -1.5325172 1.3460455
H -1.400929 1.1456931 -0.71005476
H 0.018049093 1.8696318 0.15793535
