10

O 1.7533034 -1.1295488 1.0090524
C 0.80495775 -0.6082658 0.49954253
C 0.5071513 -0.083965875 -0.9309231
C -0.7231939 0.58325124 -0.30762595
O -1.5210387 -0.46767643 0.19970624
C -0.47117603 0.026108634 1.0334278
H 0.29179934 -0.82320815 -1.7042538
H 1.2926883 0.59994346 -1.2621771
H -1.1987339 1.5223234 -0.56063706
H -0.7357577 0.38103837 2.0238879
