11

N 0.724097 0.37880588 1.6645994
C -1.065855 -0.33652374 -1.2696368
C 0.23217192 -0.05038281 0.53423136
O -0.1624357 0.59396213 -1.5977126
C 0.7999316 0.7409126 -0.5180924
O -2.0055451 -0.69346964 -1.9208307
N -0.75803447 -0.8286176 0.045820188
H 0.7578216 -0.16480659 2.5169785
H 1.1874132 1.303427 0.84138626
H 1.764142 0.3646528 -0.8666625
H -1.4737073 -1.30796 0.5699192
