10

O -0.587668 1.8575047 -1.1731234
C -0.19123207 0.030777644 0.25903824
C 0.75366515 -1.0871904 0.4002415
O -0.47358185 0.8226834 1.3311185
C -0.37394875 0.6727989 -1.0789206
O -0.653762 -1.3024796 0.30319628
H 1.1798779 -1.2451067 1.387342
H 1.3383447 -1.440107 -0.45006806
H -0.6812175 1.6997379 0.9707308
H -0.31047747 -0.008618949 -1.9495552
