10

O -0.30436526 2.10241416 -0.81185746
C -0.13718529 0.91447733 -0.94946153
C 0.63678509 -1.19434563 0.27969734
O -0.72672338 -1.29258324 -0.12995181
C -0.23855182 -0.01426271 0.21796183
O -0.71405548 0.54119007 1.36755336
H 1.37271441 -1.39005851 -0.50102742
H -0.82807282 1.48719640 1.18238180
H 0.08577775 0.43671890 -1.92331873
H 0.85367709 -1.59074668 1.26802235
