11

C 0.8827364 0.33895722 1.2406956
C -0.06281771 -0.15423052 -1.1981434
C -0.20284386 -0.011366875 0.2825352
N -1.4145563 -0.23645371 0.6250316
N -2.1435256 -0.53846 -0.5875341
N -1.4213123 -0.49808928 -1.5949175
H 1.6910741 -0.39631423 1.1836903
H 0.61903536 -0.95474076 -1.502611
H 0.4933564 0.36714932 2.2591224
H 1.3093296 1.3155078 0.9919121
H 0.24952345 0.76804096 -1.6997811
