9

O -1.154131 -1.2889057 -1.0768989
C -0.38119793 -0.47484323 -0.34450346
C 0.47782186 -0.79032815 0.6537757
O 1.0299631 0.396322 1.081824
C 0.46735504 1.3329624 0.31443277
N -0.3806917 0.8866804 -0.55406433
H -1.6308881 -0.7278979 -1.7060263
H 0.803658 -1.6901035 1.1463048
H 0.768111 2.356114 0.48515573
