9

O 1.4878552 -0.8943818 -0.22091159
C 0.18383826 -1.2047888 -0.1414951
C -0.21750458 0.46050176 0.41441008
O -1.0532959 1.4802879 0.51712745
C 0.92075163 0.4553438 -0.37542382
N -0.5239245 -0.7834768 0.9321624
H -1.8073626 1.1774642 1.0463533
H -0.24966267 -1.7638586 -0.98095876
H 1.259305 1.0729079 -1.1912642
