10

O 0.13600614 -1.50495122 1.90500432
C 0.00945682 -1.03876733 0.64700931
N -0.33888484 0.33894296 0.65183340
C -0.18428875 1.04569102 -0.34714476
C -0.05962656 1.88954747 -1.33365293
N 0.15106045 -1.73100032 -0.39871219
H -0.07292079 -0.78093889 2.51579526
H 0.84741219 2.47507553 -1.43573262
H -0.85833188 1.99877367 -2.05718092
H 0.37011726 -2.69237300 -0.14721890
