10

O 1.8252435 -1.6035013 -0.09842258
C 0.5876977 -1.0706066 -0.078491576
N -0.45907325 -1.6575081 -0.4691177
C -1.2301264 1.952686 0.16242418
C -0.31721282 1.0304457 0.29240254
N 0.61051655 0.23827998 0.4744515
H -0.2268759 -2.59279 -0.79592705
H -2.0579264 1.9974477 0.85963064
H -1.1663289 2.6690075 -0.64923835
H 2.4340858 -0.96346086 0.30228826
