10

O 0.06474576 -1.44925 1.6641142
C 0.040715512 -0.47716814 0.737715
N 0.13856898 0.80240285 0.95142066
C 0.055946518 1.3641005 -0.3113079
C -0.091901675 0.40522054 -1.2647638
N -0.09930006 -0.7995389 -0.5673735
H 0.16366573 -0.9954117 2.5124304
H 0.110132255 2.436351 -0.44715002
H -0.19049801 0.44442764 -2.3386173
H -0.19207498 -1.7311339 -0.93646777
