9

O 0.8380451 -1.7224637 -0.6250516
C 0.27508315 -0.57263476 -0.21443753
N -0.656889 0.06992798 -0.8973546
N -0.9069384 1.1230366 -0.12396235
N -0.21747136 1.2096754 0.99129134
C 0.5582908 0.1303372 0.96791285
H 0.44435015 -1.9601753 -1.4741331
H -1.5905694 1.8150047 -0.3833044
H 1.2560989 -0.09270814 1.7590393
