9

O -0.9131834 1.5735022 -1.0607303
C 0.88921064 0.647223 0.53653806
N 1.0383959 -0.6304992 0.8385475
N 0.08875613 -1.3008231 0.19587083
N -0.8060433 -0.45014235 -0.3731615
C -0.27266484 0.7737369 -0.2901445
H -1.4175528 0.20045254 -1.2543348
H -0.19989602 -2.2050972 0.53172034
H 1.5929776 1.3916471 0.8756942
