9

N -0.7250709 -0.30428857 0.5108168
C 0.77786094 1.3688662 -0.4041683
C 0.1553614 0.052969553 -0.61474985
C -0.6793249 -1.3302692 1.323702
N 1.2314569 2.4141243 -0.22521862
H -0.41210642 0.08154476 -1.5512234
H -1.4709302 0.36929253 0.6575389
H 0.19883014 -1.9325837 0.99946326
H 0.923923 -0.7196558 -0.6961607
