9

N -0.6409576 0.18960357 -0.9571195
C 0.38188228 -0.26345122 -0.0155817345
C -1.4461845 -0.4125022 0.06971592
C 1.2363721 0.8026091 0.4926632
N 1.9257307 1.646245 0.87644595
H -0.7171575 1.2026292 -0.87694806
H 0.9355694 -1.1285295 -0.37344742
H -0.26081213 -0.5407581 0.96460086
H -1.4144427 -1.4958457 -0.18032917
