9

N -0.92249592 0.06921905 0.15317671
C 0.38811924 -0.20759209 -0.45948810
C 1.31093614 0.92212186 -0.27083599
C -1.56797159 -0.57845247 1.09093683
N 2.00475578 1.83278163 -0.13065804
H -1.36880094 0.89831851 -0.22754745
H 0.79271168 -1.10801567 0.00934764
H -0.91514098 -1.43622638 1.36861633
H 0.27788673 -0.39215421 -1.53354796
