11

N -0.85857296 -0.85857549 0.58348570
C 0.32289495 -1.20137907 1.26596600
C 1.00092829 0.38560722 -0.02996251
N 1.40407094 -0.57146674 0.99007685
C -0.47305142 0.09783296 -0.20313304
N -1.29508443 0.77507059 -1.02937061
H -2.22209166 0.39718593 -1.16477414
H 0.28137260 -1.99454534 2.00785487
H 1.57134820 0.23049501 -0.95199175
H 1.18110677 1.41105540 0.30989232
H -0.91292119 1.32871944 -1.77804369
