11

N 1.1171287 0.92271495 1.2731887
C 0.31708097 0.33859566 0.31565034
C 0.15731929 -1.0203003 0.018890033
N -0.51278955 1.0762659 -0.44281173
C -1.1821457 0.19721092 -1.186805
N -0.83519745 -1.0950599 -1.0539888
H 1.2228167 1.9164352 1.1289996
H -1.9786723 0.4958688 -1.8585086
H -1.0796776 -1.4153568 0.10371203
H 1.9898378 0.45849326 1.4686908
H 0.7842992 -1.8748679 0.23298277
