12

O -1.5586588 -0.44293964 0.50679266
C 0.51672363 -0.33420542 -0.80994034
C -0.25287774 -0.91799307 0.35062358
O 0.33178645 1.4113111 0.8736855
C 0.8118048 0.12557411 0.59702057
O -0.22566901 0.57036495 -1.5792698
H -0.5769724 1.2728235 1.1918607
H -0.107282706 1.431464 -1.1413952
H -1.8132674 -0.10110554 -0.36702394
H 1.2215405 -0.9455425 -1.366184
H 1.7533848 -0.123133466 1.0783069
H -0.100512065 -1.9466178 0.6655234
