12

O 1.0424907 1.0967332 -1.0128769
C 0.60021585 1.0147221 0.31830153
C -0.447463 -0.0884961 0.44766712
O -1.4916939 0.1880144 -0.44682232
C 0.15713118 -1.438062 0.11421026
O -0.32597327 -2.1444314 -0.73862994
H 0.23555829 1.135981 -1.5475738
H 0.16248697 1.9596796 0.6684277
H 1.4724098 0.79101706 0.9432135
H -0.8066521 -0.1302557 1.4899106
H -1.6393874 -0.63693064 -0.9399624
H 1.0408767 -1.7479719 0.7041347
