12

O 0.67026261 1.46819437 -0.51025560
C 0.72712695 0.50157934 0.50093308
C 0.47259456 -0.90074219 0.00422722
O -1.66731886 0.31106477 0.07575068
C -0.58422142 -0.18298849 0.80919462
O 0.17323768 -0.99447694 -1.36063961
H 0.51534637 -0.17150116 -1.75168124
H -0.26494606 1.73338562 -0.54652216
H 1.46584242 0.69313039 1.27402592
H -0.82168230 -0.48871882 1.82437309
H -1.68411374 -0.21442240 -0.74205903
H 0.99787160 -1.75450486 0.42265307
