11

N -1.52671014 -0.57901173 -1.47466119
C -0.45021365 0.13283852 -1.28482658
C 1.14107278 0.63315358 0.61513245
N 0.00661914 -0.02040123 -0.00948823
N -1.80551609 -1.22126432 -0.29522164
C -0.88729401 -0.87547296 0.56394783
H 0.83674604 1.57299231 1.08370589
H 0.03515228 0.76032235 -2.01856444
H 1.90161336 0.83474189 -0.14114203
H 1.56831411 -0.02825318 1.37206164
H -0.81978384 -1.20964530 1.58905624
