11

N -0.8770996 0.9890271 -1.3405992
C -0.28163868 0.23995085 -0.3122755
C 1.0143229 0.3026198 0.1550256
N 1.0763371 -0.558283 1.2088172
N -0.07484114 -1.1763619 1.4531876
C -0.9100539 -0.6999713 0.5394706
H -1.5594729 0.45247367 -1.862302
H -0.193464 1.365038 -1.9852338
H 1.8701115 0.8781618 -0.16638282
H 1.8741202 -0.755105 1.7898649
H -1.9383215 -1.0375501 0.52042735
