10

C 1.2351749 -0.8649827 0.8526799
N 1.4782034 0.35780525 0.380044
N 0.27614892 -1.522494 0.19631974
C -1.1760777 0.78551894 -0.437659
N -0.047834437 -0.69885325 -0.7847146
N 0.67712826 0.44715905 -0.6684714
H -1.4199623 1.0651296 -1.454327
H -0.91448975 1.619902 0.20724006
H 1.7760848 -1.2899271 1.6880116
H -1.8843762 0.10074224 0.020876773
