11

N 1.0816021 -0.38844958 1.2663339
C -1.2086799 0.44601902 -1.3946774
C 0.2289402 -0.17636012 0.090991534
C 0.49456304 -0.99540776 -0.97902805
C -0.83887094 0.7499264 -0.12546657
O -0.45151022 -0.5578273 -1.9037312
H -1.2655784 1.5019656 0.524493
H -1.9742405 0.85257787 -2.0423508
H 1.7017645 -1.1457957 0.93852454
H 0.58004683 -0.7069093 2.0996804
H 1.6519634 0.42026085 1.5252303
