9

O -0.73159875 1.70003152 0.40459103
C 0.23835409 -0.27547035 -0.15291286
N 1.45853472 -0.82853584 -0.22789040
N -0.27243268 0.41858895 1.03749332
C -1.40188066 0.53213543 0.14102280
N -0.77598285 -0.23924510 -0.94401508
H 1.76657415 -1.17264496 -1.12400127
H 2.16196997 -0.55132773 0.43805922
H -2.44353816 0.41646802 0.42765333
