12

O -0.86546796 0.52365253 -0.97611837
C -0.66718901 -0.64141975 -1.58218634
C 0.86253360 0.46469321 0.83301464
O 1.22893442 -0.84667258 1.15422683
C -0.60433466 0.62901790 0.44507346
O -0.19452059 -1.64104089 -1.09884882
H -0.95258467 1.63941802 0.67138705
H 1.48324288 0.89876550 0.03201835
H -1.01961973 -0.57110649 -2.61849311
H 0.91551249 -1.41451760 0.42889302
H 1.02784620 1.06564634 1.73424561
H -1.21435278 -0.10643607 0.97678750
