12

O -0.6862208 0.83404684 -0.89973366
C -0.07684156 0.105764054 -1.828328
C -0.82597584 0.29292956 0.43695602
O 1.0570772 -1.167878 1.0382787
C 0.49129108 0.10325007 1.1839721
O 0.4755409 -0.95583206 -1.6728921
H 0.27891868 0.23096843 2.2513409
H -1.4440832 1.0468978 0.92978406
H 1.0780488 -1.3614589 0.084928274
H -1.363833 -0.6576747 0.3840818
H 1.1772009 0.9138194 0.8876633
H -0.16112341 0.6151675 -2.796051
