12

O -0.66270244 1.4912609 -0.81242687
C 0.18556896 0.4175255 -1.1334997
C 0.4813059 -0.4028751 0.12093598
O 1.0376359 0.4497839 1.0865365
C -0.7908429 -1.0138042 0.6685996
O -1.1313134 -0.82474697 1.8112688
H -0.25461847 1.9172662 -0.04471804
H 1.1386422 0.75665516 -1.5628808
H -0.3266762 -0.19576184 -1.8836532
H 1.1694396 -1.2260953 -0.13360903
H 0.53060955 0.28702617 1.9010128
H -1.3770485 -1.6562343 -0.017566206
