11

C 0.8032611 -0.8725104 -1.1789087
C 0.29741633 0.93840915 0.6353561
C 0.01875005 -0.21062927 -0.09258656
N -1.5702945 0.024488606 1.3371513
N -0.6577876 1.0875725 1.5628041
N -1.1642781 -0.6971778 0.3225595
H 0.5668121 -1.9388142 -1.2033315
H -1.8458664 1.2331793 1.2255427
H 0.54729253 -0.44463095 -2.1522667
H 1.8774155 -0.7471444 -1.0188293
H 1.1272789 1.6272575 0.5625089
