11

C -1.1335734 1.1438619 0.6016331
C -0.22025354 0.029401273 0.20772776
C 0.7621002 -0.013708134 -0.7458573
N 1.2471601 -1.2758517 -0.6539353
N 0.6155385 -1.9755523 0.28993168
N -0.2700487 -1.1961484 0.8131758
H -2.1800687 0.8588889 0.4571723
H -0.93737376 2.0402253 0.007107208
H -1.004414 1.3982922 1.6584806
H 1.1413009 0.70971715 -1.4503461
H 1.979632 -1.7191262 -1.1850895
