10

O -1.3596724 -1.8275076 -0.15144251
C 0.6914643 0.80997056 -0.17888673
C -0.84540725 -0.71158755 0.07686066
C 0.696821 -0.41447282 0.6266745
O 1.5250968 -0.37982982 -0.46982512
C -0.621489 0.50891894 -0.74900776
H -1.3255303 -0.03964647 0.89890563
H 1.1285566 -0.6105256 1.6052355
H 1.235858 1.7358358 -0.039868426
H -1.1256976 0.92884487 -1.6186457
