10

O 1.21062850 -1.53829186 -1.24111397
C -0.90326862 -0.37064453 -0.58285219
C -0.56601060 0.70077876 0.37583887
C 0.89389753 0.26861719 0.51085342
O -1.33945238 -0.41113509 0.77927038
C 0.55141597 -0.80770435 -0.56018816
H -1.65866433 -0.43019068 -1.35569166
H -1.00270731 1.68912942 0.44581007
H 1.18197012 -0.07678897 1.50498675
H 1.63219099 0.97623017 0.12308606
