10

O 0.9663685 -1.9537523 -0.78823274
C -0.33308125 0.16634153 -1.0744187
C -0.32374665 0.8967854 0.20899239
C 0.33375666 -0.24795105 0.9794417
O -1.5274526 0.3724658 -0.3139823
C 0.39361694 -0.9803412 -0.39275113
H -0.2826256 -0.68855107 1.7646403
H -0.32151207 0.51559097 -2.0987918
H 1.3419092 -0.046483453 1.3525317
H -0.24723312 1.9658955 0.36257067
