10

N -0.87816172 0.30693076 0.40056925
C -1.09514310 -1.05136887 0.33048387
N 0.82383520 1.83049618 -0.16976242
O -2.09292734 -1.66509286 0.56567568
C 0.39699080 0.65043441 -0.01395628
O 0.07147880 -1.61528073 -0.07070740
N 1.06545098 -0.58983856 -0.16023825
H 1.79855210 1.85887652 -0.44690237
H -1.58902196 0.97675180 0.63681312
H 1.49894642 -0.70190833 -1.07197527
