10

N 1.1161772 -0.36173683 -0.3634096
C -0.10399615 -0.70562065 0.2685994
N -0.94939667 0.3523855 -0.017339533
O -0.70173085 2.4718854 -0.9328583
C -0.281183 1.401557 -0.60869426
O 1.0050164 1.0041441 -0.7751628
N -0.4214397 -1.7417976 0.9202008
H -1.9155494 0.38633528 0.2568684
H 1.9129671 -0.39838967 0.26549798
H 0.3391351 -2.4087625 0.986298
