11

N 1.50298889 -0.60482748 0.64687600
C 0.61697994 0.44511102 -1.02506262
C 1.88067316 -0.00153410 -0.48870601
C -0.39228320 0.13299577 -0.15543866
N 0.13803598 -0.45783139 0.97426218
N -1.75967639 0.25722891 -0.25426975
H -2.04937671 0.80605535 -1.05333572
H 0.48980288 0.98259854 -1.95612741
H 2.11284778 -0.80996575 1.42072943
H -0.31618507 -1.30654326 1.30005852
H -2.22380740 0.55671240 0.59101449
