11

N 1.4810977 0.44046888 -0.28141195
C -1.6004783 0.55770975 0.24885158
O 0.6646244 -0.93839586 -1.9086224
C 0.561101 -0.40603182 -0.8212429
C -0.6989601 -0.5989468 0.0007197088
O -0.4978785 -0.24030279 1.3850172
H -1.51501 0.055985864 1.6006651
H -1.120059 -1.5915611 -0.1471034
H -1.0621086 1.4859139 0.0012420644
H 1.4318196 0.6852232 0.69470805
H 2.3558517 0.5499368 -0.77282315
