10

O -0.379582 1.6395303 -1.2184237
C -0.16940893 0.6071213 -0.3553894
C 0.5163044 -0.5721092 -0.5342541
N 0.409265 -1.2353643 0.65071535
N -0.28809807 -0.5681571 1.5668148
C -0.64974314 0.55783474 0.97184664
H -0.0342995 1.3976666 -2.0858526
H 1.0512135 -0.9815164 -1.3785012
H 0.7836963 -2.1390004 0.88289344
H -1.2393476 1.2939944 1.5001506
