10

O -0.27160883 -0.66301185 -2.1573381
C -0.22200006 -0.20102823 -0.87686837
C -1.3144087 0.5920462 -0.35215536
N 0.42852005 0.39559004 1.1675569
N -0.87740237 0.82311624 0.87850183
C 0.7709934 -0.34255627 0.045277577
H 0.5332065 -1.165602 -2.3396683
H 0.52250195 -0.041125648 2.0780263
H 1.726616 -0.85124576 0.014651668
H -1.2964178 1.4538172 1.5420163
