11

C 1.60087657 -0.06960351 0.82411985
C -1.07650940 0.27794167 0.01857121
N -0.19549530 1.52170892 -0.14348102
C 0.32811916 0.48679403 0.32520053
C -1.43544533 -0.43896202 -1.23500359
O -0.68211768 -0.53326764 -2.17513098
H -1.83613676 0.32826410 0.79648036
H 1.46541936 -0.44274379 1.84381886
H 1.88648594 -0.91454829 0.19083815
H 2.38792853 0.68701718 0.80608163
H -2.44312515 -0.90260080 -1.25149485
