11

C -0.5957703 0.9665716 1.3380018
C 0.42643946 -1.3077344 -0.71528107
N 0.97718203 -1.0086424 0.6861946
C 0.26031718 -0.05224129 0.7781394
C 0.35357288 -0.2763028 -1.632405
O 0.3894623 0.93697256 -1.315539
H -1.4118929 0.51867086 1.9119227
H -0.95842516 1.5724115 0.5029535
H 0.28555313 -0.5790802 -2.6900485
H 0.018069362 1.5936861 1.9924017
H 0.2554919 -2.3643117 -0.85634017
