12

O 1.92778650 1.12550568 0.46186752
C -1.62198545 -1.16261716 -0.40301999
C -0.01817937 -0.13277597 0.48134087
N -1.15507936 -0.27937531 -1.28804428
N -0.93753903 -1.12501988 0.71813076
C 0.96286584 0.33819796 1.42194769
N -0.11184117 0.41370895 -0.73434571
H -1.50034860 -0.02969619 -2.19870073
H 1.47803260 1.05162960 -0.43390589
H 1.85535083 2.04952031 0.74365551
H -2.46791349 -1.80203527 -0.61106073
H 1.58885080 -0.44704237 1.84213453
