12

O 0.7028791 1.8239424 1.172877
C 0.18432535 -0.28571823 0.3661124
C 0.76843494 0.29734188 1.5441889
N -0.9134912 -0.450248 -1.4262284
N -0.5217658 0.46411237 -0.48506415
C -0.4493263 -1.6568481 -1.0944866
N 0.258232 -1.6104459 0.011889269
H -0.66090834 -2.5414617 -1.677944
H -1.5286038 -0.17489026 -2.1723251
H 0.23548208 1.8284338 0.2831208
H 1.8323506 0.09728667 1.6585476
H 0.09239148 2.208495 1.8193123
