10

O 1.37587105 -1.02262231 0.90044098
C 0.19611009 -1.07781676 0.21610102
C -0.36272608 0.13816939 -0.29641161
O -1.62512356 0.67259265 -0.37145108
C -0.48482848 1.56923612 -0.19612722
O 0.23892652 -0.71631571 -1.19441635
H 1.82365621 -1.87324264 0.82357845
H -0.44708093 2.06263323 0.77352597
H -0.44945048 -1.93532307 0.41236309
H -0.26535446 2.18268914 -1.06760321
