10

N 0.82552576 -1.5073254 -0.45142785
C -0.2049111 -0.64862627 -0.3632961
O -1.3330915 -0.8177414 -0.7846772
C 0.20211843 0.6459159 0.36406597
O 1.3317364 0.8136112 0.7825377
N -0.82586926 1.5073016 0.45566407
H 1.7120264 -1.2318312 -0.059027277
H 0.70536005 -2.3962407 -0.9093107
H -0.7008594 2.3973088 0.909447
H -1.7120357 1.2376276 0.056024436
