10

N 1.2723846 0.8915538 1.025282
C 0.48578256 0.73419917 -0.066277586
O -1.6881306 -1.8992021 -0.51196975
C -1.15654 -0.8080451 -0.8932562
O 0.45155114 1.4963554 -1.0108579
N -0.30309388 -0.4315979 0.024030913
H 1.2855196 0.21572265 1.7669162
H -1.3887022 -0.2990416 -1.8266892
H -0.8558537 -1.5782647 0.44665885
H 1.8970822 1.6783202 1.0461627
