12

N -0.95650945 0.76399429 0.21252153
C -0.74552162 -0.33464714 1.06587021
C 0.06516860 1.04296864 -0.76882144
C 0.16955876 0.01778408 -1.83789949
N 0.20153676 -0.77250418 -2.68375066
C 1.34675189 -1.71585712 1.05735140
N 0.35255453 -0.96007220 1.13941914
H -1.88974516 0.77104658 -0.17360034
H -0.15068541 2.01281968 -1.22430502
H 1.03538858 1.12000681 -0.27048706
H 2.13418691 -1.35732080 1.74894673
H -1.56268468 -0.58821872 1.73475494
