11

N 0.6361313 0.56028765 0.8296354
C 1.4453053 -0.47851646 0.4067244
C -0.36616087 -0.6727555 -0.80710804
N 0.96033996 -1.2214028 -0.5100132
C -0.56501925 0.5171648 0.12702978
N -1.5073998 1.3378272 0.33003592
H -0.41856736 -0.3634176 -1.857404
H -1.1376088 -1.4354925 -0.6491662
H 2.4258893 -0.61568254 0.8534065
H 0.8277738 1.2310218 1.5555911
H -2.3006835 1.1409658 -0.27873188
