11

N -0.9788584 -1.7066758 0.5953145
C -0.34752092 -0.5376603 0.15517715
C 0.9671417 -0.16153012 0.26847515
N 1.0422264 1.0502801 -0.4020412
C -0.19463767 1.3248233 -0.8754693
N -1.061167 0.3941852 -0.5538694
H -1.9818858 -1.6033224 0.5159829
H -0.7296537 -1.9724842 1.5378348
H 1.830574 -0.6205522 0.7230505
H 1.866245 1.6151125 -0.51798165
H -0.4124637 2.2178237 -1.4464734
