13

C -0.49858920 -0.93153950 1.03813119
C 0.08866994 0.22087455 -0.59680637
O -1.00774876 -0.67229625 -0.28076141
C 0.74057929 -0.07157419 0.77055419
O 0.73508911 -0.19359079 -1.74982853
N -0.26165415 1.57515731 -0.82530655
H 1.68364547 -0.61564708 0.68086317
H 0.75547048 -1.15755844 -1.73131283
H -0.32056737 -1.99958268 1.19933668
H -0.80703610 1.65295225 -1.67702385
H -0.80341432 1.94543388 -0.05052632
H -1.17579154 -0.55687991 1.81385686
H 0.87134724 0.80425072 1.40882354
