13

C 0.3734349 0.61548597 -0.28072354
C 0.2695418 -0.8940746 -0.25522014
O -1.3850172 0.3511003 0.6989824
C -1.1459824 -0.9785124 0.3394096
O -0.36373568 1.3440025 -1.0959737
N 1.4626964 1.2049608 0.21651717
H -1.1560154 -1.6552768 1.2073089
H 0.40433276 -1.2859546 -1.2704085
H 1.0406721 -1.3300954 0.3932644
H -1.8696978 -1.3811233 -0.39287242
H 2.0844395 0.70095944 0.8267288
H -1.2367562 1.0986254 -0.5681288
H 1.5220867 2.2099023 0.18111566
