13

C 0.2014621 -1.5212325 -0.5987561
C -0.20446768 -0.057219494 -0.58242124
O -1.5711004 0.1329929 -0.23127936
C 0.73755825 0.76846254 0.3020975
O 1.9437447 0.61866677 0.26269507
N 0.09765839 1.6580925 1.1047908
H 1.2503779 -1.6164745 -0.8854572
H -0.42548633 -2.0757387 -1.3036016
H 0.08452688 -1.9661561 0.398711
H -0.11428844 0.3581876 -1.5915773
H -1.7593353 -0.43144074 0.5290458
H -0.889936 1.8072726 0.975155
H 0.649286 2.324587 1.6205974
