12

C 1.4001014 -0.29227853 0.88261974
C 0.3367534 -0.50560254 -0.18843743
C -0.58962834 0.6955315 -0.320094
O -0.21929951 1.8358382 -0.1160255
N -1.8682737 0.39827484 -0.69603914
H 2.1127293 -1.1223866 0.8927563
H 1.9426522 0.6380339 0.69585866
H 0.9481961 -0.21979016 1.8771576
H -0.24770872 -1.4133198 0.0116951205
H 0.8120286 -0.64807534 -1.1680158
H -2.138544 -0.5323672 -0.9644942
H -2.489007 1.1661417 -0.906981
