12

C -0.43054618 -1.27738338 1.17413288
C 0.17568397 -0.36090990 0.14390493
C -0.18785250 1.61449768 -1.06772240
O -0.66024649 0.65409186 -0.12796768
N 1.30934115 -0.44191402 -0.42351633
H 1.80138456 -1.27597206 -0.11198142
H 0.72672545 2.09581897 -0.70800711
H -0.38851838 -0.80642989 2.16119639
H 0.10782861 -2.22667967 1.21409312
H 0.01951563 1.14528211 -2.03402118
H -1.48147144 -1.46524231 0.94124267
H -0.99184465 2.34484057 -1.16135351
