12

C -1.0336901 -1.0317074 1.0308884
C 0.6374779 1.6068479 -0.89083344
C -0.019351829 -0.41277355 0.10522807
O -0.274169 0.89522755 -0.05946663
N 0.9751786 -0.9602243 -0.46478426
H 1.6510098 1.5702877 -0.47981694
H -2.0383322 -0.6851556 0.7767844
H 0.26973552 2.633019 -0.90842104
H 1.0076491 -1.952323 -0.24229972
H -0.829185 -0.72854584 2.0624545
H 0.6533062 1.1869571 -1.9009519
H -0.9996292 -2.1216097 0.9712184
