10

N -0.822865 0.87193084 1.3538593
C -0.17199768 0.17655183 0.3498316
C 0.35100183 -1.0671136 0.21181299
N 0.9866934 -1.1468337 -1.0256531
C 0.81068826 0.00806563 -1.5527699
O 0.111480795 0.88021606 -0.7732326
H -1.4994743 1.5388795 1.004377
H -1.232989 0.26786426 2.05055
H 0.3310216 -1.9038395 0.8960304
H 1.13644 0.37427846 -2.5148058
