10

N -0.57143519 -1.15962401 1.45781667
C -0.69246575 1.30616698 -0.97522336
C -0.15930479 -0.36434411 0.43677135
N 0.89301264 -0.36777523 -0.25880757
C 0.65693688 0.68975750 -1.24021477
O -1.12508528 0.61396913 0.06256013
H 1.42941086 1.46672645 -1.18694358
H -1.26231515 -0.76584391 2.07787549
H 0.14528836 -1.71749348 1.89206721
H 0.68595731 0.29846047 -2.26590167
