9

N -0.26364642 1.2195586 1.5178752
C -0.36940423 1.1584884 0.16861632
O -0.7417088 2.0659416 -0.5412448
C 0.014743605 -0.1414133 -0.40887353
C 0.30246925 -1.1628662 -0.9738982
C 0.633785 -2.342175 -1.6317142
N 0.90890425 -3.323357 -2.1766737
H 0.038429834 0.440246 2.0775325
H -0.5235727 2.0855772 1.9683805
