9

N 2.0791414 0.011090362 -0.78621113
C -1.3425378 0.06851495 0.417968
O -2.4845057 0.06199491 0.82113254
C 0.9348086 -1.3042823 1.0254387
C 1.6937795 -0.690313 0.103111304
C -0.22088757 -0.82783073 0.95372593
N -0.6328425 0.7165158 -0.4985451
H -1.2382478 1.3834219 -0.9783951
H 1.2112917 0.5808878 -1.058225
