9

O -1.9680245 0.4245718 0.0758686
C -0.65723014 0.13417941 0.030066958
N -0.111161314 -0.8957302 0.6541579
N 1.1728182 -0.7829381 0.32911292
N 1.4997841 0.22709793 -0.44732788
C 0.3398769 0.8435258 -0.66228336
H -2.3981626 -0.23730943 0.6340447
H 1.8583701 -1.442415 0.66103727
H 0.26372954 1.7290177 -1.274677
