9

O -0.92547599 1.26322528 -0.21134322
C -0.07510292 0.18099359 -0.12347610
N -0.80785693 -0.94371284 0.52292190
N -0.27753754 -1.92185460 0.99962190
N 0.85206048 -0.16825708 -1.19894064
C 1.33802250 0.17188133 -0.05883529
H -1.83328987 -0.78052529 0.50938341
H 2.29702956 0.31134753 0.41673915
H -0.56784901 1.88690198 -0.85607100
