9

O -1.1757236 0.7182279 0.7737782
C 1.262779 0.18970558 0.43898734
N -0.60174096 -0.928504 -0.76971567
N 0.1062927 -1.7718148 -1.2724662
N 0.94837743 1.0299153 -0.4812804
C -0.10623808 0.18848817 0.08265089
H -1.6336776 -0.88831747 -0.8784262
H -0.9284991 1.5904894 1.1063192
H 2.1284301 -0.12819012 1.000153
