11

N 1.6175928 -0.067824304 -0.2928105
C 0.47758675 0.18038666 -0.9906436
O 0.37253815 0.14439689 -2.1992323
C -0.71602845 0.4684885 -0.11370611
C -1.1598809 -0.51947725 0.87419313
O -0.47073594 0.6562411 1.2732884
H 1.6568218 0.1880171 0.68172807
H 2.4756346 -0.18359795 -0.81320685
H -1.4476609 1.1379446 -0.5603535
H -2.2112775 -0.5605979 1.1545781
H -0.59459054 -1.4439775 0.986165
