11

N 0.58247536 -1.7299272 -0.87231064
C 0.14173177 -0.52308977 -0.3961267
O -0.64903903 0.13419299 -1.2726572
C -0.3857127 1.420981 0.6268731
C 0.3615042 0.13779655 0.7460737
O -0.8569494 1.450228 -0.72756547
H 0.8712796 -2.3767357 -0.15267034
H -1.2525631 1.5045556 1.2977254
H 0.013341414 -2.1441436 -1.595894
H 0.9407823 -0.19223647 1.5938653
H 0.23314951 2.3183784 0.7526868
