11

N 1.89997295 -0.58873433 -0.36925072
C 0.60895008 -0.14809317 -0.24057295
O 0.04951225 0.20110850 -1.41986609
C -1.46836845 0.57088304 0.28092328
C -0.18947450 0.02796529 0.81830098
O -1.20695765 0.82941948 -1.10552778
H 0.03068007 -0.19549015 1.85020947
H 2.14720767 -0.94534603 -1.28071364
H -1.77114277 1.53115004 0.71722204
H -2.31930617 -0.12160988 0.35031861
H 2.21892638 -1.16125284 0.39895664
