10

N -0.87049586 -0.17784575 0.085213214
C -0.9633154 -1.2462927 -0.7613891
C 1.0388871 -0.56953794 0.89678687
O -0.14603761 -2.1137016 -1.0099509
C 0.31503004 0.4401286 0.3679844
N 0.41854176 1.774235 0.34285608
H 1.1493381 2.2244008 0.8677133
H -1.964961 -1.2683508 -1.2276679
H -0.43920803 2.2818859 0.18834803
H 1.4622211 -1.3449212 0.2501059
