10

N -0.03870633 -1.30846936 1.17831845
C 0.47892416 -0.55318491 0.19857591
C -0.93227809 1.13245250 -0.75460362
O -1.75347830 1.18245698 0.13223735
C 1.36092888 0.07903831 -0.52612754
N -0.10751616 0.03145468 -0.98758910
H -0.98743965 -1.04646758 1.41898294
H 0.55748443 -1.50245732 1.96946076
H -0.84427891 1.91811926 -1.52699142
H 2.26635989 0.06705749 -1.10226359
