12

O -0.54938424 1.1202368 -2.143374
C 0.44285357 -1.721452 0.997303
C -0.18464969 0.1301739 0.13187557
N 1.4301842 -1.0708444 1.4847422
N 0.5960006 1.0429695 0.424698
C -0.94770145 1.2818137 -0.844896
N -0.5353281 -1.1138961 0.20918028
H -1.9477003 0.86266065 -0.70777327
H 2.051676 -1.6497468 2.0359647
H 0.2685723 -2.7878573 1.1593688
H 0.27658215 1.5998492 -2.279878
H -0.90110546 2.3060927 -0.46721134
