12

O 1.80190543 2.07800174 -1.04907662
C 0.51023289 1.60308942 -1.23349428
C -0.31058670 -0.54100433 -0.45148829
N -1.08169134 -1.37898093 0.01084631
N -0.45205221 -1.22818961 2.27196046
C -1.06110267 -1.82996017 1.34152781
N 0.46022706 0.16494372 -1.06157351
H 0.11997813 1.79704609 -2.24257686
H -0.12103018 2.12560886 -0.50790199
H 2.38204025 1.66041544 -1.69326937
H -1.64779427 -2.74350343 1.45942513
H -0.60012635 -1.70746671 3.15562081
