10

N 0.737713 0.055281155 1.6460847
C -0.7113307 0.7577288 0.02659959
O 0.7871512 -0.8911789 -0.5915815
C -0.33040923 -0.7764005 -1.4530911
C 0.45701697 -0.01741095 0.38440117
N -1.1964041 0.09927664 -1.1749655
H -0.55692387 1.8255725 -0.12472929
H -0.32282653 -1.491648 -2.263246
H 1.611037 -0.26411554 2.0517259
H -0.47502366 0.70289475 1.4988021
