10

N -1.3191714 -0.64055985 -1.1622288
C -1.2055627 -0.74572885 0.09109195
O -0.18047109 -0.21747474 0.7770672
C 0.7675026 0.4760814 -0.030893134
C 1.8215889 0.9804322 0.8524249
N 2.6757457 1.3971496 1.5100615
H -2.1613297 -1.1089218 -1.488044
H -1.8793926 -1.2516934 0.7884172
H 0.28635484 1.30765 -0.5562921
H 1.1947358 -0.19693443 -0.7816043
