9

N -0.8075922 1.8455726 -0.12873691
C -0.10902939 0.81086546 -0.3495782
N -0.23617944 -0.3090126 0.45960882
C 0.48099467 -1.4703434 0.29946125
O 0.3677087 -2.440112 1.0075366
H -0.59864694 2.5715356 -0.80482084
H 0.6280187 0.67997044 -1.1471542
H -0.9063871 -0.2649901 1.2183554
H 1.181113 -1.4234858 -0.55467194
