9

N -0.92631600 1.51758468 0.19969734
C -0.63113481 0.27824089 0.59505768
N 0.31523764 -0.28212584 -0.20607216
C 0.76026609 -1.57840633 0.03385070
O 1.59299153 -2.12020349 -0.64592760
H -0.50830666 2.00582572 -0.58997966
H 0.75918105 0.16921480 -1.01027100
H -1.61910030 2.03146232 0.71730375
H 0.25718146 -2.02159254 0.90634094
