12

C 0.17540337 0.1895614 -0.16670758
N 0.556799 -1.1389139 -0.3689601
C -1.6269213 1.7105544 0.45356026
N -1.0652388 0.49288505 0.02444755
C 1.8406887 -1.5952274 -0.28157765
O 2.168059 -2.7464838 -0.46433294
H -1.7212725 0.3437255 0.945898
H -0.15888155 -1.822545 -0.5857673
H -1.0146728 2.6127257 0.44030818
H -2.671807 1.8060058 0.1789656
H 2.5547938 -0.7923114 -0.021030199
H 0.96305025 0.9400234 -0.15480371
