12

C -0.84161290 -0.58320048 -2.01858019
N -0.40312103 -0.98472448 -0.77982995
C 0.54646861 -0.26521235 -0.03018735
N 0.09044791 0.44754211 1.00547337
C 0.69764167 1.16614972 1.93059737
O -1.53791212 -1.26014736 -2.74299666
H -0.92389897 0.41269860 1.07019783
H -0.48488350 0.43491506 -2.26652138
H -0.62244386 -1.94801401 -0.54772946
H 1.60788328 -0.34494863 -0.20900262
H 0.09445302 1.68241899 2.66139170
H 1.77697775 1.24252283 1.92718712
