12

C 0.5556582 -0.6476032 -1.8496845
C -0.0812993 -0.7419453 -0.4790608
O -0.6048547 -1.7467985 -0.04768477
N 0.008181734 0.41905653 0.26879776
C -0.47418752 0.5399274 1.564564
N -0.34406403 1.6426355 2.175788
H 0.1321889 -1.4249418 -2.4855795
H 0.40079415 0.33313853 -2.311807
H 1.6355795 -0.8199693 -1.7620689
H 0.4488845 1.2435406 -0.11725625
H -0.936128 -0.37548396 1.9355669
H -0.7407534 1.5784435 3.1084247
