12

C 0.85511477 0.89718421 -1.67005002
C 0.31007588 0.04796147 -0.79587893
O 0.13146139 -1.28264968 -1.01600339
N -0.14274283 0.41365944 0.45790303
C -0.65378945 -0.42053433 1.43167836
N -1.02195945 0.07544032 2.54198778
H -0.69205228 -1.47083024 1.13795698
H 1.17272930 0.55955427 -2.65022132
H 0.49864387 -1.49327544 -1.88422652
H 0.99349816 1.94202372 -1.41700347
H -1.37400852 -0.65600458 3.15242694
H -0.07697080 1.38747085 0.71143019
