10

O -1.7658429 -1.1084826 1.2123628
C -0.87654054 -0.5485659 0.602404
N -0.8664006 -0.1388535 -0.72189313
C 0.34509283 0.4654001 -1.0520281
C 1.1128055 0.4492031 0.051354796
N 0.37351665 -0.16499856 1.0604043
H -1.652431 -0.28452483 -1.3312304
H 0.5469988 0.8503767 -2.0383406
H 2.1140664 0.816157 0.21095134
H 0.66873497 -0.3357113 2.006015
