10

O 1.49856111 0.13264698 1.61321324
C -1.16519836 -0.31356117 -0.56473442
N 0.91551815 0.57576170 -0.63315757
C -0.24286184 0.30928928 -1.34524897
C 0.67160041 0.11083286 0.55703153
N -0.55788446 -0.43991537 0.68289031
H -2.16475252 -0.67376033 -0.75129466
H -0.33071899 0.59069149 -2.38501755
H 2.30918246 0.56432716 1.30791983
H -0.93344585 -0.85631238 1.51839826
