9

N -0.6962175 -1.7306048 0.7209504
C -0.040058557 -0.7615143 0.26723045
O -0.45866632 -0.009039 -0.8162204
C -0.3087238 1.3517934 -0.7844269
O 0.06571059 1.9837093 0.15570328
C 1.285214 -0.46580693 0.7899583
N 2.351392 -0.28653845 1.1946212
H -1.588849 -1.8251458 0.23722301
H -0.6098015 1.7431465 -1.7650393
