10

N 1.2925868 0.8971965 0.4764019
C 0.052224595 0.7266301 0.34393644
O -1.7084609 -0.68911374 -0.39517546
C -0.49786785 -0.54891586 -0.2846647
O -0.9254795 1.565787 0.7058086
N 0.45031822 -1.4136412 -0.6611664
H 0.19295782 -2.2928088 -1.0797039
H -1.7685789 1.132804 0.4745324
H 1.4984617 1.793905 0.9169839
H 1.4138379 -1.1718429 -0.49695265
