11

C 1.5311389 -0.42098412 -0.4952984
N 0.1477344 -0.28640747 -0.06814113
C -0.47964612 0.8591325 0.19354975
N -1.6976771 0.5082185 0.5585266
C -0.71460664 -1.3963879 0.14385478
N -1.865902 -0.84839666 0.5345335
H -0.08759911 1.862479 0.12003145
H -2.4580555 1.1130192 0.82698566
H 1.9177006 0.54295665 -0.83186847
H 2.1403017 -0.793191 0.33128643
H 1.566611 -1.1404386 -1.3134601
