11

C -0.51890854 0.71900808 0.46839282
N -1.32040960 0.08750361 1.30430332
C -0.23249810 -1.52584698 0.31462952
N -1.16859381 -1.26917462 1.22909626
C 1.18626276 -0.04252288 -1.16529263
N 0.16087111 -0.24274589 -0.15392478
H -0.44266393 1.78620328 0.32316490
H 1.14655752 0.98000169 -1.54576361
H -1.98894183 0.49265213 1.94065920
H 1.00610567 -0.74716383 -1.97725700
H 2.17221890 -0.23791477 -0.73800788
