9

O 0.7624627 -1.5363379 -0.38712272
C -0.92465365 1.1837679 -1.7608801
C -0.34462976 0.49414173 -0.9569683
C 0.36262658 -0.2806539 -0.014290289
C 0.22605918 0.019788243 1.3604279
N 0.4026243 0.41446826 2.5040293
H -0.72371167 -0.42355457 1.8223497
H 1.6741678 -1.6623793 -0.08938876
H -1.4349453 1.7907593 -2.4781568
