11

C -0.2155021 0.8567198 1.7420093
C -0.02489422 -1.2847115 -1.070729
N 0.36958095 -0.025195057 -1.666977
C -0.07409666 0.2586175 0.5638286
C 0.33911553 0.83729774 -0.732467
O -0.29455754 -1.0601156 0.3181464
H -0.5300891 0.30565518 2.620793
H 0.5922401 1.8832011 -0.885111
H 0.78110474 -2.019457 -1.1685319
H -0.92640495 -1.6712083 -1.5568774
H -0.016496763 1.9191964 1.8359159
