12

C 0.39641255 0.7989347 0.8289152
C -0.4954949 -1.320124 -0.7447311
N -0.4083236 1.7169029 0.23339866
N 0.24566667 -0.29837993 -1.3946801
C 0.71205676 -0.37647098 -0.08715802
O 0.8537181 0.8696451 1.9490682
H -0.5550761 2.5886595 0.7198817
H -0.09583949 -1.2690542 0.54110533
H -1.5508873 -1.1105735 -0.53628504
H -0.22524598 -2.3690426 -0.892575
H -0.5244073 1.6589217 -0.76915246
H 1.6474206 -0.88941884 0.1522128
