12

C 0.35766595 0.08708510 0.95350390
C -1.04685479 -0.66517905 -0.88856364
N 0.47778146 1.21687394 1.69431570
N -0.20791548 0.37717836 -0.30894283
C 0.30501254 -0.39647346 -1.43383562
O 0.68999195 -1.01940822 1.32292262
H 0.86159289 1.14970704 2.61836424
H 0.42502301 0.16429773 -2.35666227
H -1.16493860 -1.57555556 -0.30566223
H 0.16101156 2.09839095 1.32294978
H -1.93099675 -0.30424095 -1.40573014
H 1.07262647 -1.13267585 -1.21265980
