9

O -1.02993663 -0.95755333 1.61482795
C -0.18477695 0.13150002 1.32569563
C 0.09763883 0.27860655 -0.11186010
C 0.32379372 0.34070148 -1.28891889
C 0.79267954 0.46845126 -3.75351995
N 0.57403713 0.41251777 -2.59506521
H -0.63574702 -1.75853149 1.24839967
H -0.70762040 1.02008546 1.69127459
H 0.76993175 0.06422237 1.86916604
