9

O -0.24268447 -1.2160145 1.7547022
C -0.19063339 0.1285609 1.3335934
C 0.11606671 0.26584783 -0.099334456
C 0.34042588 0.33403972 -1.2819942
C 0.6001068 0.41386846 -2.6362753
N 0.8151565 0.48065308 -3.7756798
H -0.91509455 -1.676502 1.2384195
H 0.6005805 0.6005508 1.920665
H -1.123924 0.6689958 1.5459034
