10

N 0.6831954 -1.0113425 -0.3297406
C 0.30597216 0.06756226 1.596091
N -0.5874809 -0.12912479 -1.779331
O 0.75253636 -1.1141895 1.0884933
C -0.037597883 0.065415226 -0.5995886
O 0.28048232 0.35277548 2.7568035
N -0.11684838 0.85821044 0.5061643
H 0.10768801 -1.3588407 -1.431938
H -0.66369957 0.6213667 -2.453262
H -0.7242476 1.6481676 0.64630806
