9

O 1.72606 0.0047498224 1.4180471
C 0.83290935 -0.030108092 0.60120034
N 0.82007414 -0.55022085 -0.6748882
N -0.4729561 0.45100325 0.7044261
C -1.1327423 0.18618959 -0.46896017
N -0.3758092 -0.41909668 -1.3220893
H -2.1626527 0.45339638 -0.65403295
H 1.5922538 -1.0040444 -1.1308362
H -0.827137 0.908131 1.5271335
