11

C 0.4273823 -0.06419677 -0.1026804
C -0.49278527 -1.1938044 -2.2867095
N -0.06276506 -0.66212904 -1.3308898
C -0.3508186 1.2118795 0.18992089
N 0.3574617 -0.9748981 1.0094358
H 0.055420104 1.682168 1.0891283
H -0.2787438 1.9092453 -0.6484595
H -1.4086922 0.98187065 0.35922512
H 1.4809555 0.17442803 -0.27562842
H 0.8808025 -1.8208088 0.8160726
H -0.6082171 -1.2437541 1.1805853
