11

C -0.48120650 1.12094394 -0.37379207
C 0.38813064 -0.11493943 -0.18293071
N -0.31060517 -1.28355288 -0.68530173
C -0.88950353 -2.24787761 -1.02609767
N 0.77310336 -0.26423370 1.19568289
H -1.40074423 1.03387777 0.21572841
H -0.05208748 -0.38380251 1.77781229
H 0.06993670 2.00315303 -0.03804899
H -0.75484196 1.24231323 -1.42488134
H 1.30118215 -0.02262621 -0.77848466
H 1.35663599 -1.08325544 1.32031387
