10

N -0.09415502 1.0499065 -0.61336255
C -0.07356775 -0.021936603 0.21202095
N 0.2762208 -0.58590937 -1.9074159
N 0.12232305 0.69211507 -1.8970853
N -0.34157407 0.070470594 1.5724975
C 0.17226405 -1.0742695 -0.63959503
H 0.1767593 0.7967858 2.049148
H 0.2746844 -2.1261938 -0.4220039
H -0.21406472 -0.81364274 2.0440812
H -0.29889005 2.012674 -0.3982852
