10

N 0.9754343 1.4196631 0.5542247
C 0.2584163 0.31960285 0.09934794
N 0.24355184 -0.026953612 -1.1830131
N -0.47282174 -1.1433887 -1.1845359
N -0.9363762 -1.5489088 -0.026165184
C -0.48443356 -0.6335793 0.82669276
H 0.50386107 1.9495915 1.2718695
H 1.2567332 2.0208163 -0.2087143
H -0.6474109 -1.655306 -2.0341604
H -0.6969543 -0.7015371 1.884454
