10

O -0.23276164 -0.7784834 1.8114941
C -0.07468263 -0.3269028 0.70003
C 1.1253977 -0.62042767 -0.17127235
C -1.1058294 0.6200227 0.16903068
O -1.1881876 0.7469472 -1.2975663
C -0.7133108 1.7889199 -0.706656
H 0.8150713 -1.1335843 -1.0881178
H -2.0701694 0.6398131 0.66731936
H 1.6186842 0.31170493 -0.46634918
H 1.8257886 -1.2480099 0.38208747
