12

O 0.87359893 1.9632591 -1.2847842
N 1.0090971 1.4118738 -0.0073719057
C 0.31018433 0.3673397 0.106456734
C 0.13443561 -0.607449 1.2439276
N -0.56070167 -1.5131092 0.29615465
C -0.58577394 -0.47705916 -0.77033746
H 1.4691362 2.7216012 -1.2441281
H -0.49265918 -0.2198736 2.0577703
H 1.0508043 -1.0273212 1.6700692
H -1.4821018 -1.7939279 0.6088611
H -1.5659161 -0.017650483 -0.9543547
H -0.16010393 -0.8076835 -1.7222632
