10

O -3.23698685 -0.00534832 0.76109085
C -2.09528466 0.08787078 0.50816507
C -0.82076239 0.12728769 0.21940749
N 0.13977589 -0.89006027 0.38092179
O -0.20183043 1.26950139 -0.25301700
C 1.31091027 -0.37134600 -0.18621747
C 1.09405120 0.90881541 -0.50624906
H 2.20865507 -0.96641393 -0.25382502
H -0.12886986 -1.84945033 0.21843318
H 1.73034148 1.68914344 -0.88870983
