10

O -2.3852684 0.95679986 0.40338182
C -1.7679646 -0.056688916 0.6241186
C -0.35734168 -0.2253168 0.21192664
N 0.275038 -1.3450475 0.4635473
O 1.5357586 -1.1771208 -0.031725146
C 1.6376936 0.049890827 -0.5754731
C 0.4703791 0.71897227 -0.46078092
H -2.2126968 -0.923554 1.147936
H 2.6047184 0.28942013 -0.99956125
H 0.19968349 1.7126448 -0.78336996
