11

C -0.53225774 -1.0789008 -1.412247
C -0.016309885 -0.24834363 -0.28811565
N 1.1596185 -0.25915688 0.24683672
C 1.0917884 0.69328874 1.2551677
C -0.14262268 1.2335646 1.2675905
O -0.8699067 0.6380799 0.27813253
H -1.4236045 -1.6362946 -1.1072068
H 0.2431205 -1.7827864 -1.7140425
H -0.8031249 -0.45796487 -2.2724206
H 1.9373747 0.9123652 1.891546
H -0.6440759 1.9861487 1.8547591
