11

C -0.27836557 -1.18089664 -1.03016870
C -1.60115971 -1.57223797 -0.60295573
N 0.20938071 -0.06782909 -0.55124479
C 1.16698735 1.62428268 1.01205693
C 0.48220425 1.01674591 -0.14720079
O -2.30506772 -0.93315370 0.15882403
H -1.94415830 -2.53528879 -1.03458961
H 0.33148179 -1.75193148 -1.71939937
H 1.87270772 2.38889967 0.67492433
H 1.67072975 0.88201014 1.63799481
H 0.39525961 2.12939932 1.60175892
