11

C -0.4869041 -0.84684026 -0.23188764
C 1.2465174 1.0825799 1.1311599
N -0.5909379 -0.21430129 0.7764456
C -0.008585321 0.6124425 1.6322484
C -0.77433616 -0.9732736 -1.6607705
O 1.698664 0.751971 0.040420145
H 0.17638394 -0.76697654 -2.1637778
H -1.5240715 -0.25475025 -2.0029862
H -1.0737573 -1.9951766 -1.9026372
H 1.8002999 1.7673963 1.7964033
H -0.46327302 0.8369286 2.5853822
