11

C 0.11709584 -0.3148774 0.11532823
C -0.35757908 1.746821 -0.30112493
N 0.44061056 0.83151287 0.51453924
C -1.2054814 0.92873424 -1.2434762
C 0.5674967 -1.668283 0.5258081
O -0.8663562 -0.30479035 -0.9298539
H 1.3065407 -1.5829377 1.320806
H 1.0020162 -2.1918702 -0.3311356
H -0.2875249 -2.2540648 0.87557983
H 0.28537476 2.431743 -0.87066895
H -1.0021933 2.3780127 0.3241983
