9

O 1.5855063 -0.28077236 -1.5343112
C 0.6215635 -0.15001696 -0.6123136
N 0.34852403 0.9927386 -0.018265191
N -0.6682013 0.62754416 0.8011397
C -0.9361249 -0.67966676 0.65322345
N -0.13318744 -1.2133596 -0.24206606
H 1.9916313 0.58839697 -1.6557529
H -1.0995493 1.310305 1.4029858
H -1.710162 -1.1951693 1.2053603
