10

N -1.7393357 -1.308842 0.3922125
C 0.91449374 0.6646545 -0.7247877
C 1.0092115 0.7972014 0.59735537
O 0.014245414 0.06701364 1.2137445
C -0.73680407 -0.5508075 0.23678413
N -0.17313746 -0.1750846 -0.96288127
H 1.6850349 1.3399218 1.2390393
H 1.5101458 1.0833577 -1.5218012
H -0.530563 -0.49096724 -1.8465582
H -1.9532912 -1.4264477 1.3768926
