10

N -0.3455266 0.8927183 -0.05660304
C -0.63657147 0.376985 1.1987991
C -0.07657132 -0.8506339 1.2778882
O 0.5434588 -1.1525999 0.061909378
C 0.30447084 -0.077912435 -0.69493365
N 0.4473526 0.27678588 -1.9536262
H -0.20394458 1.3490615 -1.2844611
H 1.1468053 -0.13547872 -2.5542727
H 0.0037665234 -1.5985042 2.0494053
H -1.1832402 0.91957855 1.9558946
