10

N -0.565398 1.167102 -1.2853547
C -0.15340774 0.25124177 -0.32478315
C 0.6859395 -0.81168497 -0.39611876
O 0.68992513 -1.4144657 0.8442331
C -0.14865544 -0.677362 1.5744615
N -0.6819107 0.32361484 0.9546808
H 0.14599863 1.4181502 -1.9563233
H -0.9742411 1.9875433 -0.85946053
H 1.3043606 -1.2652923 -1.1539717
H -0.30261087 -0.97884715 2.6026368
