9

O 0.5349759 1.5151722 -1.2989093
C -0.54727614 0.9370854 -0.61417216
C -0.13776183 -0.060338877 0.3856036
C 0.677705 -1.8772533 2.190579
C 0.23344666 -0.89321965 1.1750098
N 0.5226861 -2.6432703 1.2793543
H -1.2646322 0.4571005 -1.2989165
H 1.0503787 0.80782515 -1.7049717
H -1.0695221 1.7568985 -0.113577574
