9

N -2.19617 0.30860916 -1.4332727
C -1.2769847 0.44927478 -0.7475585
C -0.104074925 0.622212 0.08830009
C 0.47192225 -0.57795805 0.7544215
N 1.1734209 0.057679053 -0.34497908
H -0.035771564 1.5926281 0.57274175
H 0.9308762 -0.45675483 1.7327946
H -0.02448491 -1.5296084 0.58628523
H 1.0612669 -0.46608192 -1.2087328
