9

N -0.74258944 0.24305756 -1.87893526
C -0.00441833 0.18737451 -0.91532826
C 0.82187666 0.25047877 0.16785453
C 0.33626007 -0.78868204 1.25501320
N 0.13304992 0.59357651 1.42805307
H -0.81428739 0.96078181 1.28115608
H 1.87449634 0.47943405 0.03641010
H -0.59959206 -1.31972167 0.99723160
H -1.00479563 -0.60629962 -2.37145496
