9

N -0.6060395 0.43690443 -1.8928139
C 0.028300198 0.36698627 -0.8587635
C 0.7038205 0.4064156 0.32535988
C 0.4222134 -0.9239839 1.1305476
N -0.16437936 0.29676184 1.514689
H -0.5811439 -0.32899454 -2.5602825
H -1.1583797 0.43898684 1.3011432
H 1.6618432 0.9122966 0.38847303
H -0.30623487 -1.6053731 0.65164727
