9

N -0.34598115 -1.2698894 -0.7798858
C 0.95767313 0.8356777 0.22583123
C 0.2797247 0.06469567 -0.77125484
C -0.7246858 -0.34064105 0.26339066
N 0.5805365 1.6358671 1.0370009
H 0.01812868 0.66551965 -1.6393164
H -0.33341783 -0.7062082 1.2143985
H 0.25381312 -2.022015 -0.4410131
H -0.6857913 1.1369939 0.8908488
