10

N -0.9516101 -0.42000833 0.43690312
C -0.6469577 0.84831786 -0.06101518
C 1.1164438 -0.552699 -0.34052306
C 0.6260717 0.775914 -0.53711903
C 0.17197132 -1.4240439 0.17526862
H -1.345326 1.6690303 0.0140474755
H -0.37095386 -0.8609704 1.3431851
H -1.8967419 -0.7714643 0.52625585
H 2.121189 -0.8694159 -0.59108996
H 1.1759137 1.6053398 -0.96591306
