10

N -1.0497485 0.2619212 0.36164668
C -0.6597714 -0.96795267 -0.10004041
C 0.66868746 -0.88641995 -0.4383692
C 1.0943165 0.44561568 -0.16940348
C 0.010765795 1.1300884 0.32358733
H -1.9741416 0.49382645 0.6821748
H -1.3575065 -1.790836 -0.14851697
H 1.2758664 -1.687412 -0.83587795
H 2.0862648 0.8465099 -0.32346457
H -0.094733156 2.1546588 0.64826363
