9

O -1.7431167 0.56622225 -1.5540069
C 1.1799991 0.5263132 0.14075932
N 0.7357847 -0.5708656 0.7080585
C -0.6037731 -0.7468308 0.16440888
C -0.8571881 0.2608963 -0.8060772
O 0.3743409 1.0559092 -0.75065213
H 2.1252232 1.0053968 0.35508224
H -0.11004447 -0.402928 1.4579668
H -1.1012253 -1.6941131 0.2844605
