11

N -0.50034854 0.14036690 2.40977790
C 0.39009882 -0.04369546 1.43786370
O -0.29043055 0.02531013 0.27436761
N -0.16053695 -0.72447245 -1.94988979
C 0.51320451 -0.13869273 -0.85111170
N 0.26319564 0.69288871 -1.97604544
H -0.17960231 0.10614705 3.36145894
H -1.48958241 0.29654629 2.24904261
H -0.58615321 1.22599285 -1.81082867
H 0.49305313 -1.21958266 -2.55093836
H 1.54710203 -0.36080854 -0.59369608
