9

O 1.57434673 -0.21215264 -1.28250041
C 0.50416825 -0.49337366 -0.56343236
C -0.64099317 -0.98757388 -0.25625685
O -1.55993375 1.31617456 1.08306934
C -0.38720937 1.05995416 1.12016590
N 0.15464676 -0.20411516 0.79946217
H 1.52478266 -0.68250965 -2.12787262
H -1.54881671 -1.55877626 -0.27530225
H 0.37900852 1.76237234 1.50266696
