9

O 1.0075169 -0.94962823 -1.4984822
C 0.31045437 -0.3493757 -0.5194083
C -0.94100237 -0.6219829 -0.08048799
O -1.1982372 0.26830333 0.9385155
C -0.09086192 1.005649 1.0355247
N 0.8441662 0.6946474 0.20133153
H 1.8657845 -0.5043619 -1.5396928
H -1.7184224 -1.3232093 -0.32658935
H -0.07939816 1.7799581 1.7892888
