10

O -0.5666441 -1.8765188 -0.788272
C 0.21195127 -0.99110603 -0.045410458
C -0.31513032 0.41876137 -0.1450667
O -1.2917207 0.6919461 -0.81070846
C 0.4035784 1.5248758 0.60892266
O 1.3771714 1.3163946 1.2832162
H -1.2656229 -1.3534256 -1.2078893
H 0.23935892 -1.2708511 1.0189327
H 1.258897 -0.98713493 -0.38954127
H -0.05183897 2.5270588 0.47581685
