10

O 2.0346382 -0.49140772 -0.17577821
C 1.0429554 -0.0037466472 0.47787586
C -1.5516893 0.18357952 0.21643439
O -1.7316798 0.67288435 1.3123373
C -0.19259244 -0.15128689 -0.25789437
O 0.032511987 -0.6448872 -1.4377166
H 1.1282471 -0.8025657 -1.2628694
H 1.0331103 0.17499825 1.5616411
H 0.56814706 1.1208998 0.056044552
H -2.3636484 -0.058467887 -0.49007466
