9

N -1.1950802 -0.75233155 -0.06581419
C -0.51446134 -0.42902127 1.023468
C 0.63651454 0.33071184 0.72074425
C 0.6126151 0.45280626 -0.65007925
N -0.49259397 -0.2068746 -1.0680993
H 1.3713399 0.7303376 1.4034332
H -0.8245848 -0.32220834 -2.0124876
H -0.8712154 -0.7496321 1.9930347
H 1.2774663 0.94621205 -1.3442001
