9

N -0.73469547 2.08237177 -0.36947999
C -0.10063305 0.98842834 -0.46531717
N -0.36143737 -0.04815992 0.43914524
C 0.29917972 -1.12000428 0.30126690
O 0.13466848 -2.16462224 1.11362258
H -0.42349779 2.72243931 -1.09605711
H 0.66358247 0.78571850 -1.23471545
H -0.53385420 -1.91012298 1.76991860
H 1.05668720 -1.33604875 -0.45838355
