9

N -0.4728372 -0.13447371 0.2900805
C 0.20098297 1.0753422 0.082961656
N -0.24190004 2.1409621 0.608548
C 0.010636626 -1.170092 -0.25583482
O -0.54768676 -2.3728945 -0.11528766
H 0.3632296 2.9204717 0.36232114
H 0.90343934 -1.2291088 -0.88589984
H 1.1050935 1.0300986 -0.54761547
H -1.3209579 -2.260306 0.46072665
