9

N -0.8097825 1.8435259 -0.13044415
C -0.109325565 0.81100285 -0.34927782
N -0.23618892 -0.30781224 0.45931783
C 0.4800753 -1.4704003 0.29921895
O 0.36575884 -2.4410043 1.0058334
H -0.59849936 2.5719182 -0.8036455
H 0.6314794 0.68081254 -1.1456677
H -0.9042907 -0.2632697 1.219437
H 1.1807735 -1.4247732 -0.55477196
