11

C -0.094823 1.3778293 0.8393165
C 0.3979892 1.1275231 -0.37209293
O 0.49595368 -0.071679056 -1.0177836
C 0.2523413 -1.2358464 -0.26359397
O -1.0826213 -1.4070313 0.093633674
H -0.5416965 0.6213111 1.4726835
H -0.06500659 2.3993504 1.2012203
H 0.807856 1.9098661 -1.007216
H 0.6198066 -2.0471046 -0.90378416
H 0.8179476 -1.2006357 0.6734149
H -1.607747 -1.4735836 -0.7157981
