11

C -0.22418181 1.01670141 -0.69585769
C 0.16780331 -1.26429121 -0.18407542
O -0.36969240 -1.34866344 1.09772826
C 0.34438527 1.52913101 0.39371895
O -0.44979433 -0.29555156 -0.99866197
H -1.30298283 -1.59032047 1.02067728
H -0.58218118 1.63873180 -1.51338281
H 0.04971332 -2.19771018 -0.74781106
H 1.22874718 -1.02522512 -0.05608547
H 0.67344022 0.93201313 1.23534983
H 0.46474339 2.60518522 0.44839996
