11

N 0.7168828 0.22025807 1.2279927
C -0.46942046 -0.31272626 -0.7624351
C 1.5365336 0.025710117 0.20716003
N -1.693914 0.6586781 0.8305727
C -0.49950594 0.14642558 0.61734146
N 0.95722616 -0.23081958 -0.9804607
H -2.0530834 0.7813462 1.7728039
H 1.4605719 -0.4794006 -1.8143365
H -1.7251484 0.41293523 -0.49501023
H 2.6138296 0.1090677 0.3025801
H -0.8439716 -1.3314747 -0.9062081
