11

N -0.9799667 -1.7046713 0.5957211
C -0.3486554 -0.53710425 0.15472221
C 0.9674793 -0.16204453 0.26758742
N 1.0433606 1.049697 -0.40108386
C -0.19310856 1.3244143 -0.8740955
N -1.0605593 0.39394626 -0.55379516
H -1.9831185 -1.6007717 0.5130822
H -0.73469675 -1.9696728 1.5388098
H 1.8295404 -0.6230526 0.72263134
H 1.8692443 1.611588 -0.51898575
H -0.4095192 2.2176716 -1.4445938
