10

O -1.57859181 -0.20537639 0.94066694
C 0.82809653 0.56042812 0.79541941
C 0.86745117 -0.71620454 0.51754858
C -0.39819053 -0.02362449 0.23000934
N 0.07082484 0.19849980 -1.97383190
N -0.83601349 0.27832633 -1.13358438
H 1.32524842 1.45096751 1.14568255
H 1.42997005 -1.63502010 0.49108786
H -0.34969467 0.43797365 -2.88345879
H -1.35910051 -0.34596983 1.87046049
