10

O -1.3069599 1.3146801 1.084185
C -0.6228944 0.09813767 -0.9622026
C -0.73245996 0.45328113 0.2961364
C 0.8019453 -0.17942366 -0.780476
N 1.3085603 -1.0532268 0.12943102
N 0.8856286 -0.98759 1.3136013
H 1.5122751 0.1561237 -1.5361059
H -1.1901324 0.09213419 -1.8898199
H -1.804161 1.9784821 0.5740524
H 1.1481984 -1.8725985 1.7711982
