10

O -1.6879311 -0.6694115 -0.348945
C -0.4309673 -0.14560689 -0.07130153
C 0.78486395 -0.94873613 0.13101664
C 0.2957269 -0.3590049 1.1900322
N -0.41356984 1.1458033 -0.75992924
N 0.7189317 1.6376745 -0.86115634
H -1.78831 -1.4998682 0.13347052
H 0.3654601 -0.12948665 2.2413948
H 1.5502287 -1.5693381 -0.3053544
H 0.6055671 2.5379746 -1.3492277
