12

N -0.051770717 0.9980951 -0.10910412
C -0.8094994 0.5788887 -1.128361
C 0.45617723 -0.110757336 0.67675394
N -0.7506642 -0.9235585 -0.98014593
C 0.12580013 -1.3351346 0.2345481
O -1.4258052 1.1346455 -2.0032609
N 1.162447 0.27113268 1.8347224
H -1.6962886 -1.2892487 -0.8695261
H 1.2558113 -0.5522483 2.4159527
H 2.1008499 0.59316605 1.6099268
H -0.38230956 -1.3352423 -1.8367852
H 0.01525217 1.9702619 0.15527956
