12

N 0.83582103 -0.9999726 -1.6925343
C -0.3290055 1.2983364 0.79509383
C -0.6983103 -1.110251 0.25282857
N 0.3854131 0.8804752 -0.28979883
C 0.1843798 -0.4830492 -0.56807536
O -0.44720733 2.3982356 1.282572
N -0.9632024 0.09792622 1.2395049
H -0.3745695 -0.8374991 1.5640473
H 1.8458236 -0.9892032 -1.5974948
H -1.8315798 0.16678758 1.756278
H 0.5310067 -1.9518884 -1.846655
H 0.86143064 1.5301024 -0.8957661
