11

O -2.66356118 -0.09933127 0.57996585
C -1.57188681 -0.56189623 0.77911492
N -0.45717868 0.20008141 1.17235339
C 0.76403443 0.08818801 -0.98648989
O 1.58324181 1.16657858 0.91315366
C 0.53377941 0.46538955 0.44106971
N -0.08755500 -0.64576202 -1.57426116
H 1.38375313 1.38427945 1.83742566
H 1.68914247 0.47704252 -1.42135545
H 0.19155014 -0.82633918 -2.54027962
H -1.36531978 -1.64823058 0.79930280
