9

O -0.85952198 -0.21528698 -2.05684429
C 0.26791908 0.28751547 1.35982985
N -0.76319874 0.48010888 0.23317012
C -0.26383691 -0.18974096 -1.02186345
C 1.18006865 -0.40753813 0.68421400
O 0.89826532 -0.69705233 -0.71523184
H -1.67145922 0.08797320 0.49105025
H -0.92355243 1.47337499 0.05077404
H 2.13531620 -0.81935419 0.97490114
