9

O 0.9576377 1.508077 -1.3506919
C 0.60920495 0.6438251 -0.6034691
N -0.82006365 0.3977594 -0.19138508
C -0.87580097 -0.80784804 0.7641579
C 0.4229574 -1.0963573 0.8036827
O 1.3179681 -0.25883818 0.016791463
H -1.3924156 0.2380185 -1.023314
H -1.1967094 1.2363322 0.2563792
H 0.9772214 -1.8609687 1.3278489
