9

O -1.3217081 -0.6588316 0.8838189
C -0.5983262 0.29688394 0.15348922
C 0.8614466 0.19488382 0.340141
C 2.0447419 0.0782166 0.5088577
C -0.9282048 0.22999556 -1.2952003
N -1.2045754 0.14847249 -2.412955
H -1.0076469 -1.5378431 0.6392499
H -0.9450751 1.2678283 0.52394086
H 3.0993478 -0.019605985 0.6586579
