9

O -1.9646567 0.42245176 0.077236295
C -0.6563728 0.13375019 0.032679804
N -0.11083903 -0.8962364 0.6560513
N 1.1749315 -0.78217 0.32827228
N 1.4975713 0.22943994 -0.44927114
C 0.33902144 0.8439495 -0.6608902
H -2.3996818 -0.24047971 0.6303623
H 1.860807 -1.4397448 0.6584696
H 0.25921914 1.7290397 -1.2729101
