11

C -0.54722875 -0.550495 -0.11131086
N 0.73137635 0.89546704 0.6514013
C -0.5344613 0.9750548 0.15750611
O -0.73076236 -0.90809363 -1.4496522
C 0.93087107 -0.518186 0.33497545
O -1.3124177 1.8753272 -0.04144567
H 1.6146042 -0.7006967 -0.49702266
H -1.1992924 -1.0978873 0.5814395
H -1.5151277 -0.44423965 -1.7702914
H 1.1860927 -1.1379539 1.1971464
H 1.3763456 1.6117033 0.9472544
