11

C -0.63458453 0.83970239 -0.39165196
N 0.03885902 1.08306374 0.76587154
C 0.57190883 -0.26981411 0.92052536
O -1.22326570 1.52529517 -1.19084242
C -0.28014702 -0.66582460 -0.30510548
O 0.46360034 -1.15551268 -1.38202905
H 0.25717824 1.94576192 1.23978855
H 0.30714106 -0.74975205 1.86506053
H -1.14526909 -1.29134680 -0.05012674
H 1.64230977 -0.35696112 0.72135402
H 0.00226899 -0.90461155 -2.19284408
