10

C 0.25977942 1.1861464 0.52305806
C -0.019606154 -0.034830634 -0.1942828
C 0.49157947 2.2124372 1.1007261
C -0.1957412 -1.2463797 0.5667872
N -0.12656605 -0.12176044 -1.4777821
N -0.52615845 -2.2510104 -1.4702283
N -0.4379704 -2.211847 -0.308942
H 0.6978457 3.1251535 1.6158913
H 0.0076357387 0.74858034 -1.98692
H -0.15079795 -1.4064887 1.6316926
