10

C -0.93318164 0.37943375 2.3665352
C -0.4742105 0.21208459 1.2664305
C 0.06727927 0.010167456 -0.03340054
C 1.340877 0.12037778 -0.5503068
N 1.3065926 -0.19791025 -1.8688061
N 0.088171475 -0.49974638 -2.2005177
N -0.66561526 -0.3800105 -1.1099914
H -1.3324916 0.52664405 3.3469613
H 2.2555745 0.4033815 -0.053617414
H -1.652996 -0.57442206 -1.1632872
