10

N 0.8052494 -0.1596426 1.6815877
C -0.37834632 0.14060904 1.3629997
O -0.7946496 0.21013092 0.08948511
C 0.21389414 -0.0845474 -0.87287587
C -0.38618127 0.03965824 -2.2032092
N -0.8153289 0.12473044 -3.2734995
H 0.9206971 -0.161459 2.692452
H -1.2144175 0.37881365 2.0258293
H 0.5965304 -1.1003085 -0.7299997
H 1.0525526 0.6120152 -0.77276975
