10

N -0.13601378 -0.30736568 1.17256299
C -0.96084228 0.68158115 1.25466501
O -1.18505588 1.33326487 0.11092126
C 0.23490824 -0.33150745 -0.16607036
C -0.40662837 0.67160618 -0.81843527
N 1.08549552 -1.32992754 -0.61572001
H 1.61568912 -1.73538588 0.14414751
H -1.48362386 1.04107188 2.13244345
H 1.68360811 -1.06387890 -1.38364312
H -0.44753676 1.04054137 -1.83087166
