11

N -0.7565991 1.9820836 1.1760846
C -0.76435167 -0.35903013 -0.13116074
C 0.4547725 -1.2338704 0.22587186
C 0.5030099 0.6530124 -0.6307088
C -0.05659697 1.5119637 0.3248341
O 1.45618 -0.25842544 -0.16904654
H -1.3516035 0.9988416 0.9816161
H -1.2626319 -0.67618364 -1.0565605
H 0.5659311 -1.470387 1.292355
H 0.588315 -2.1546285 -0.3575271
H 0.62357426 1.0066241 -1.655758
