11

N -0.9751197 -2.0677881 -0.50102323
C -0.5389184 -0.90281117 -0.30611265
C -0.9186866 0.50143975 -0.31263483
C 0.583007 0.049388327 -0.40344834
C 0.7077928 0.85226274 0.8878905
O -0.7020243 1.1424345 0.93324745
H 1.0514985 0.32483912 1.7855505
H 1.2906252 0.07380552 -1.2258035
H 1.2808856 1.7764935 0.7536467
H -0.20289676 -2.7295587 -0.58229995
H -1.5761634 0.97949487 -1.0290127
