10

N -0.2739321 0.020638824 1.2438351
C 0.3781812 0.21774183 -0.98101294
N -0.49647635 -1.9264607 -0.040193822
O 0.16611023 1.2770641 1.1401753
C -0.15693648 -0.5923729 0.08199392
C 0.58392656 1.4528933 -0.2446105
H -1.1365952 -2.279775 0.6578443
H 1.6400708 1.7500447 -0.22323081
H -0.7076813 -2.2084713 -0.984034
H 0.0033327313 2.2886972 -0.6507666
