10

N 0.99670666 -0.559685 -0.64874643
C -1.2010278 -0.5424175 -0.8783175
N 1.2372384 0.8222181 1.228866
O -0.020463698 -1.0445696 -1.423005
C 0.46696168 0.14654516 0.31527993
C -1.0014781 0.15632547 0.34332788
H 0.7553996 1.0540797 2.081797
H -1.3282486 0.5737664 -1.1696931
H 2.1790926 0.4776866 1.3537308
H -2.0841806 -1.0839494 -1.2032398
