10

N -0.25610661 -1.34556733 -1.44333406
C -0.10732092 -0.47641074 -0.37917379
N -0.58768833 -0.78970015 0.80844702
O -0.27542659 0.16342024 1.68994643
C 0.46548309 1.17826989 0.95221265
C 0.59359640 0.77968604 -0.43880739
H -1.01290787 -2.01067328 -1.36132015
H -0.18328730 -0.90211613 -2.34501037
H 1.44106158 1.28072549 1.44409289
H -0.07740353 2.12236608 1.07294642
