11

O 1.0227239 2.1136196 -0.44018567
C 0.74702907 0.0060988413 -1.1425061
N -0.34576324 0.61178166 0.8345711
C -0.6663975 -0.80444735 0.59426886
C 0.4435495 1.0117021 -0.15112792
C 0.08764411 -1.0822432 -0.7032979
H -0.6603586 1.1631113 1.6155572
H 1.3924283 1.4104086 -1.3822683
H -0.31463748 -1.4211407 1.4299074
H -1.7504663 -0.93941164 0.49709377
H 0.044248223 -2.0694792 -1.1520126
