10

O -1.0664424 0.79772115 -0.77704424
C 0.07893113 1.2582277 -0.13605161
C 0.36425418 -0.81922907 -0.1295406
O -1.9953308 -1.2625108 -0.3913321
C -1.0452745 -0.52978516 -0.4031677
O 0.65356255 -1.3920621 1.0416092
H 0.57173765 2.0582345 -0.6930892
H -0.030997638 1.4460416 0.9296191
H 0.94292074 0.24604186 -0.41827044
H 1.5266391 -1.8026798 0.97726756
