10

O 1.359424 -0.28561044 -1.6181215
C -0.79391253 0.5056536 -0.79293936
C -1.4703273 0.57426393 0.3795457
C 0.51328814 -0.105388924 -0.61019653
N 0.7968074 -0.46475178 0.60186625
N -0.4145959 -0.066751786 1.2924067
H -1.1526598 0.84844595 -1.7554101
H -0.17209092 0.58829516 2.036935
H 2.1607368 -0.71027875 -1.2773198
H -0.8266699 -0.8838771 1.7432337
