10

O -2.145774 -0.10202903 0.26046285
C 1.3131744 0.762798 0.23314527
C -0.82529277 -0.016381485 0.06594667
C 0.03420566 0.8967019 0.7375426
N -0.20032771 -0.8142807 -0.77325475
N 1.0972979 -0.39391816 -0.6463311
H 1.7612929 -0.5226669 0.3529695
H -0.27672786 1.589969 1.506391
H 1.7260633 -0.60568625 -1.411217
H -2.4839118 -0.79450643 -0.32565504
