10

C -0.93429646 -0.37018122 0.20261946
C 0.38550737 -0.39428093 -1.24461663
N -0.89649067 -0.41979022 -1.28513128
C 0.60409499 -0.29795565 0.25362702
N -1.03879792 1.01333877 0.73975229
C 0.24298110 1.06907410 0.80324389
H -1.55203892 -1.12571200 0.68909060
H 1.06711483 -0.41451555 -2.09393655
H 1.28004756 -0.96915764 0.78307930
H 0.84187795 1.90918034 1.15227212
