10

C -1.0838096 0.24608302 -0.25301403
C -0.31724548 -0.59646344 -1.050639
N 0.9510403 -0.8909869 -0.76411563
C 1.4448222 -0.32811293 0.3384736
N 0.80962574 0.49064618 1.1748848
C -0.4566122 0.77248126 0.86942303
H -2.114476 0.4786937 -0.49427912
H -0.7307515 -1.0509483 -1.9483281
H 2.4805422 -0.5628458 0.58035517
H -0.9831352 1.4414531 1.5472394
