10

C 0.3860018 -0.8916087 0.8729509
C 1.0339205 0.63275284 -0.4624225
N -1.3707954 0.5929854 0.5011946
C -0.34542668 0.844463 -0.5226603
N 1.4318926 -0.24135177 0.50490046
C -0.91414905 -0.5910148 0.10511771
H 1.7447467 1.050945 -1.1663321
H 0.33503008 -1.4296405 1.8165706
H -1.5432227 -1.3931037 -0.30377305
H -0.7579982 1.425573 -1.3455464
