12

C 0.39782770 -0.67094383 0.78134727
C -0.36142462 0.97785177 -0.21889687
N 0.80143368 0.71680033 0.67843681
N 0.46707036 -1.20218402 -0.58069294
C -0.75080773 -0.50313316 -0.11757267
O -0.00032036 1.44787063 -1.46892553
H 0.74648067 1.23240440 1.55143262
H 0.67736193 0.82066760 -1.76445760
H 0.56476999 -1.30978280 1.64075224
H -1.09804739 1.66553878 0.20617181
H -1.72887627 -0.96743939 -0.16675061
H 0.28453207 -2.20765060 -0.54084461
