12

C -0.2878908 -0.8290204 -0.61181766
C 1.2774277 -0.429114 0.0014918749
N -0.88128936 1.2516174 0.35745835
N 0.79714614 -0.25162795 -1.3460345
C -1.1036984 -0.036597613 0.22722062
O 1.3578044 0.5097359 0.8732557
H 0.61299425 0.7387492 -1.5189005
H -1.504641 1.7048812 1.0155206
H -0.5275917 -1.8791776 -0.7472976
H -1.9205151 -0.5309428 0.766766
H 1.8788856 -1.3304633 0.14074202
H 0.30136862 1.0819601 0.84159493
