10

O -0.61972857 0.33669966 -2.197699
C 0.13830246 -0.45378396 0.98069984
C -1.0314946 0.06751081 0.35038692
C -0.29474133 0.40797058 -0.998162
O 0.7365425 -1.5109962 0.12786388
C 0.97934115 -0.21940197 -0.25558117
H -2.0300593 0.29097524 0.7245938
H -0.33606952 1.4400823 -0.4586361
H 2.0105987 0.13377912 -0.2891963
H 0.4473084 -0.49283552 2.0157301
