10

O -0.5463488 1.0533787 -0.91564935
C 2.2883353 -0.24249427 0.7275503
C -0.14451614 -0.16206631 -0.33155656
O -0.43534946 -1.3072059 -1.0399486
C 1.1952002 -0.21269013 0.23365308
C -1.1839287 0.6593812 0.30516818
H -0.9467144 1.2760932 1.1694282
H -1.2642522 -1.1561874 -1.5166167
H 3.2627773 -0.262823 1.1628783
H -2.2252035 0.3546139 0.20509307
