10

O -0.37995374 1.6156058 0.3372842
C -0.97181 -0.61872566 0.6461029
C -0.060658637 0.3729313 0.1881027
O 0.7483702 0.9146244 -1.6181225
C 1.1671072 0.0990885 -0.59579974
C -1.6863425 -1.5084459 1.0241976
H 0.19121361 1.9775 -0.44380692
H 2.0883625 0.40482545 -0.059808534
H -2.3365746 -2.2847228 1.3611845
H 1.240286 -0.9726808 -0.8393343
