11

C -1.3049191 0.10489029 -0.78461885
O 0.07103548 -0.01672368 -1.0861132
C 0.81715393 -0.5308156 -0.018085686
C 1.0218787 0.4927135 1.0866756
O 1.2837493 0.20330992 2.2263613
H -1.7480747 -0.87122464 -0.5390677
H -1.4817395 0.79177845 0.056488425
H -1.791475 0.50506526 -1.6753389
H 1.8071783 -0.7775431 -0.4194277
H 0.38508993 -1.4497371 0.4060932
H 0.9401226 1.5482866 0.74703336
