11

C -0.44100917 -0.34650468 0.40038724
O -1.56176938 0.36528002 0.83584547
C -0.07107938 -0.36048190 -1.09298592
C 0.96654508 0.25133303 0.57915963
O 1.28904284 -0.01532020 -0.79309156
H -0.14758674 -1.31167923 -1.63176400
H -1.52137254 1.26098870 0.47619793
H -0.58062340 0.42467114 -1.67347035
H 1.65135748 -0.25100452 1.27176853
H -0.53857253 -1.34699269 0.82665456
H 0.95506768 1.32971023 0.80129832
