11

O -0.9598646 -0.43113872 -0.7946659
C -2.031797 -0.47487727 -1.5433449
N 0.60231304 0.5249033 0.5286158
C -0.5254806 0.7753215 -0.15464284
C 1.2466938 -0.7757091 0.6510347
O -1.1201514 1.810437 -0.2515244
H -2.4504013 0.56165415 -1.5262849
H 0.6422167 -1.4739652 1.237929
H 2.2063167 -0.62497205 1.1498772
H 0.96385163 1.3164825 1.0393713
H 1.4263026 -1.2081362 -0.33636534
