11

N 1.3272892 -0.7752967 -0.92403346
C -0.19777744 1.2398665 -0.17139694
C -1.0717824 0.32098198 0.5251034
C -0.31464833 -0.7627182 0.8836225
C 0.95334935 -0.40813518 0.2946065
O 1.0908804 0.9466576 0.3253166
H -2.1502821 0.4171178 0.58875704
H 0.38537684 0.18262126 -1.3166012
H -0.40297577 2.3036215 -0.2600657
H -0.6294618 -1.7472662 1.1991572
H 1.0100319 -1.7174505 -1.1444662
