11

N 0.16475478 -2.2211335 -0.73487157
C 0.5271091 -0.46197715 0.9288607
C 0.065665334 -1.0209507 -0.35900402
C 0.24200924 0.8345805 0.94872904
C -0.42831728 1.2102294 -0.34183982
O -0.4930426 -0.0065106917 -1.0850612
H -0.2296124 -2.3474526 -1.666809
H 0.14330396 1.9472829 -0.9158909
H 1.0107164 -1.0702213 1.682779
H -1.4450322 1.5917131 -0.19779684
H 0.44244543 1.54444 1.7409036
