10

O 1.3175257 -0.91245854 0.49043834
C 0.40652016 0.1380568 0.36466944
C 0.0063192486 0.4435146 -1.0778822
O -1.3900058 0.18265545 -0.7590479
C -1.0828034 -0.20450489 0.50867033
O -1.8050547 -0.65509295 1.3400574
H 1.3277478 -1.1987425 1.4105787
H 0.6882695 1.0250826 0.94889766
H 0.38807788 -0.28492564 -1.7948767
H 0.14340353 1.4664153 -1.4315048
