10

C -0.25557685 1.0738477 -0.16443089
C 0.43109503 0.18675534 0.8201456
N 1.0199555 0.47142798 -0.52693313
C -0.23886833 -0.062233683 -1.1133564
C -0.19440065 -1.1705655 0.7008365
N -0.61246777 -1.33387 -0.49004787
H -0.46761063 2.1343043 -0.20777807
H 0.9709656 0.56338716 1.68029
H -0.28349847 -1.9144913 1.4854413
H -0.36959347 0.051438246 -2.184167
