10

C -1.07226748 -0.69499643 0.51614871
C -0.00076661 0.10922722 -1.13514863
N 1.13912918 -0.37976031 -0.31365411
C 0.27646861 -0.15747058 0.89001540
C 0.58886893 0.94574778 -0.06557723
N -1.25366014 -0.53407571 -0.73319323
H -1.79341968 -1.15681359 1.18220661
H 0.18717384 0.26953844 -2.19137985
H 0.75216110 -0.25431803 1.85825988
H 1.17631227 1.85292111 -0.00767748
