9

O 1.50297198 0.87093007 -0.46681438
C 0.40512486 0.08467960 -0.23374028
N 0.43955594 -1.34077489 -0.65348626
N -0.16958325 0.37907918 1.05767142
N -1.29012460 -0.12744237 1.23092068
C -0.27796292 -0.53913275 -1.32201907
H 1.88056469 1.10185658 0.39314474
H -0.91559487 -0.55020589 -2.19449374
H -1.57495172 0.12101056 2.18881676
