14

C -0.38480625 -1.3633388 -1.8528247
N 1.0303681 -1.6508183 0.33912173
C -0.33162054 1.7024518 0.9154884
O -0.36137635 -0.31966433 -0.8819332
N -0.25224823 2.5885854 1.8218375
C 0.39533246 -0.5584504 0.1989327
N 0.36120895 0.5166506 1.0726128
H -1.0367306 -0.99800175 -2.6469712
H -0.7801149 -2.2869036 -1.4193014
H 0.6209324 -1.5567068 -2.2370903
H 1.5563295 -1.6791482 1.2055464
H 0.8966786 0.44506827 1.9243019
H -0.80877215 3.3976843 1.5703709
H -0.90518117 1.7625921 -0.01009146
