11

N -1.1435673 -0.58931714 -1.9647429
C 0.9308403 0.12402677 0.68512523
C 0.9716798 -0.53363067 -0.55108964
C -0.26242897 -0.40509585 -1.1582386
C -0.38042805 0.2399429 1.3444705
O -0.71988183 1.0757403 0.27656084
H -0.35967377 0.75288576 2.3150125
H -0.94641393 -0.70214975 1.4242008
H 1.81273 0.6298902 1.0726948
H -1.7626381 0.13316807 -2.3057637
H 1.859782 -0.72546065 -1.13823
