11

N 1.9150803 0.62315327 -1.2068464
C 0.88623494 0.26556864 -0.56428695
C 0.054295983 1.1208836 0.30451185
C -0.93258435 0.38418767 0.79868716
C -0.8061868 -1.0202777 0.27785298
O 0.35114956 -0.9942912 -0.55954784
H 2.305379 -0.1559717 -1.7338133
H 0.27225107 2.1688907 0.46343905
H -1.7242463 0.69787353 1.4694754
H -1.6697419 -1.3313631 -0.32179913
H -0.65163153 -1.7586538 1.0723274
