11

N -1.7219695 0.06772409 0.8127505
C -1.0221399 0.5670478 -0.4252887
C -0.37807465 -0.22529922 0.7073994
C 0.0619876 -0.4971689 -0.6466327
C 1.3953 0.042584915 -0.08768419
O 0.79398346 0.27974102 1.231482
H 1.7643324 0.98266244 -0.50789773
H -0.7541415 1.6140018 -0.38318345
H 2.1914494 -0.70467514 -0.01769199
H -0.048575535 -1.3659105 -1.2899446
H -2.2821515 -0.7607082 0.60669136
