12

N -0.2704374 -0.011994968 -2.052236
C -0.15670404 -0.038141225 -0.65402627
C -1.0299091 -0.31273007 0.33347023
N -0.35547996 -0.10322989 1.5481461
C 0.93357265 0.33436248 1.3306147
O 1.7733334 0.66158175 2.148018
N 1.0515842 0.3126856 -0.053005178
H 0.28818864 -0.7313506 -2.4986925
H -1.2344799 -0.121788196 -2.3389533
H -2.0473688 -0.66892016 0.29590833
H -0.76611876 -0.08967776 2.4650958
H 1.8138185 0.76920307 -0.52433974
