10

O -0.23983598 -0.17363788 2.0256934
C -0.106526636 -0.03657623 0.6905271
C 0.70239234 -0.6143295 -0.2602094
C 0.29286274 0.010878874 -1.4637325
N -0.6735273 0.88736945 -1.2764583
N -0.9052185 0.84408885 0.05438649
H 0.39750016 -0.82824826 2.335921
H 1.4656643 -1.3648673 -0.11275516
H 0.678188 -0.15518036 -2.4603171
H -1.6114992 1.4305024 0.46694443
