10

O -0.03352963 -0.40946757 2.22155742
C -0.10680619 -0.08233026 0.91159429
C 0.65201910 -0.58404425 -0.17564266
C 0.15543678 0.10151605 -1.26058906
N -0.80825872 0.91879121 -0.79166686
N -0.98681533 0.82287626 0.54056607
H 0.65868965 -1.07095077 2.33479622
H 1.43649974 -1.32744293 -0.16369742
H 0.41393630 0.06614496 -2.30848651
H -1.38117177 1.56490734 -1.30843153
