9

O -0.865218 -1.3798546 0.77542746
C -0.040690806 0.47518405 -0.09291755
C 0.85291636 -0.62359047 -0.2511601
O 0.088161945 1.7637209 -0.4825266
C -1.0975261 -0.06872672 0.5585085
N 0.35563222 -1.7193004 0.2642888
H 0.91401464 1.8787769 -0.9652864
H 1.8293653 -0.6526484 -0.7198709
H -2.0366557 0.3264387 0.9135369
