9

O -0.16163412 -1.6757731 -1.3479799
C -0.24025477 0.1347032 0.16207382
C 0.966325 0.7337082 -0.42356652
O -0.68502635 0.4539043 1.3828851
C -0.68980175 -1.142628 -0.3974435
N 1.51055 1.1604849 -1.4202347
H -0.7204137 1.4170699 1.4812126
H -1.5955718 -1.5440692 0.09569311
H 1.6158273 0.46259978 0.46736
