12

C 0.9321076 -0.16625617 -1.3261157
C -0.43972963 0.2641158 0.685516
O 0.044440832 1.5279952 0.5915764
N 1.2697471 -1.0233016 -2.2001574
C -1.2612246 -0.16882032 1.6458957
N 0.021230541 -0.52551806 -0.35156485
H 1.9372236 -0.61927074 -2.8483887
H 1.289222 0.8619814 -1.2445958
H -1.6045218 -1.1971084 1.6584389
H -1.6043081 0.4957149 2.430257
H -0.29022667 2.0332906 1.3426999
H -0.29396084 -1.4828227 -0.3835619
