12

C 0.5568956 -0.64699703 -1.849393
C -0.08089774 -0.7418796 -0.4796199
O -0.606689 -1.7455958 -0.04936661
N 0.010329073 0.42031878 0.26965758
C -0.47385553 0.5397589 1.5641211
N -0.3444126 1.6402702 2.1784034
H 0.13359109 -1.4231026 -2.4863484
H 0.40236992 0.33458284 -2.3104107
H 1.6361824 -0.8189105 -1.7619038
H 0.45070958 1.2444335 -0.11739849
H -0.9382907 -0.37616757 1.9333088
H -0.7459322 1.5732888 3.1089497
