12

C 1.4316257 -0.021909785 0.88146394
C -1.8639337 -0.0906651 -0.9520675
O -0.38866138 1.528929 -0.56650966
N 2.271547 -0.8293186 1.369513
C -0.58066165 0.25567043 -0.4406251
N 0.3310729 -0.51824045 0.18236664
H -1.5857698 1.4125636 -0.79960805
H 0.2312954 -1.5225276 0.14662208
H -1.904547 -0.006230795 -2.0380971
H 3.0103157 -0.32203296 1.8501114
H -2.396228 -0.9549336 -0.5572463
H 1.4439443 1.0686958 0.92407656
