17

C -1.5325673 2.2381103 0.13645627
N -0.66621375 1.176104 -0.3409507
C -0.11147443 0.31731275 0.5947973
O -0.22108944 0.5234497 1.7964324
N 0.5987066 -0.7412094 0.08094274
C 1.0446373 -1.7862793 0.9812849
C 0.8324109 -0.93616796 -1.336459
H -2.467761 1.8631372 0.57322973
H -1.0091339 2.8037415 0.9112485
H -1.764682 2.909582 -0.6921661
H -0.929974 0.77085483 -1.2268901
H 0.5275956 -2.734509 0.779975
H 0.8277963 -1.4720768 2.0019832
H 2.1236687 -1.9540265 0.8756677
H 1.0004855 0.024127482 -1.8351896
H 1.7391262 -1.5363147 -1.4652535
H 0.008469053 -1.4658365 -1.8351088
