10

C -0.93300545 0.60787378 -1.33869005
O -0.79061987 -0.79876266 -1.01255317
C -0.06865504 -1.24561804 -0.03093598
O 0.49544100 -0.15144688 0.58441140
C 1.21969143 -0.37582164 1.73505385
O 1.25324477 -1.38955656 2.34983253
H -1.60254687 0.62462431 -2.19448598
H 0.04145013 1.02714475 -1.59377933
H -1.36358890 1.14518026 -0.48989342
H 1.74858890 0.55638263 1.99104004
