10

C -1.5264828 1.4903599 -0.09053166
O -2.3718693 1.3550246 -0.9190024
C 1.193496 -1.3085061 0.058355063
O -0.8123068 0.255582 0.54797775
C 0.08242011 0.7482185 -0.25743765
O 1.1278552 0.024470914 -0.51237345
H 1.2949183 -1.2448839 1.1437422
H 2.080305 -1.7569268 -0.3855826
H -1.3633945 2.3104475 0.6133714
H 0.29505864 -1.8737863 -0.19851865
