11

N -0.5431953 1.3090715 0.055501025
C 0.2771806 -0.83522654 0.31798893
C 0.42947868 -0.2703577 -1.0637759
N -0.004474584 0.9201612 -1.2537118
N 0.60950994 -2.0214977 0.7167059
C -0.3052685 0.22375119 1.0112445
H -0.08249429 2.1911118 0.29571155
H -0.7554678 0.29265583 1.9861977
H -1.5308927 1.531779 -0.112713434
H 1.0235656 -2.5444942 -0.053080577
H 0.8820583 -0.7969544 -1.9000683
