11

N 0.21677391 -1.4376854 -0.6055192
C 0.9215362 -0.35380962 -0.021871569
C -0.14585575 0.5869142 0.22726025
N -1.0926085 -1.2887471 -0.5243667
N 0.40126622 1.7996002 0.2533379
C -1.3714215 -0.099710934 0.0069714244
H 1.467275 0.9957047 -0.14974305
H -2.3960366 0.23674151 0.07759045
H -0.04306605 2.557676 0.765432
H 1.464847 -0.6696023 0.8738789
H 0.57729006 -2.3270812 -0.90297055
