11

N 0.10802454 0.97446410 -1.20717038
C 0.99067682 0.30996938 -0.55824970
C 0.50278305 -0.52570335 0.58855296
N -1.15209477 0.62869186 -0.53780476
N 1.21208503 -1.29834101 1.34788096
C -0.86404140 -0.25545674 0.59501537
H -1.74457286 0.21952262 -1.26923564
H 2.03010462 0.39019458 -0.86593647
H -1.58354293 1.51995663 -0.27811032
H 2.19148760 -1.25471074 1.07146523
H -1.69090989 -0.70858708 1.11359264
