10

O -1.6897914 -0.94050133 1.2991928
C -0.20714761 -0.65783155 -0.71857417
C -0.7706693 -0.42241582 0.70356756
N 0.8168807 0.3939249 -0.5182127
C 0.20463374 0.6004728 0.9823294
H -0.922478 -0.33876067 -1.4819955
H 0.85364854 1.2013904 -1.1276511
H 0.20201798 -1.6395781 -0.97294396
H 1.4011796 0.20095009 0.45126078
H 0.11172585 1.6023489 1.383027
