10

O 0.7965087 1.9335822 -0.7568072
C 0.3545705 0.88992065 -0.3766249
C -0.9284174 0.44191676 0.32912058
N -0.50899565 -0.95569545 0.092334814
C 0.83381546 -0.5651302 -0.39013267
H -0.9531498 0.7654055 1.3790628
H -1.8715427 0.7258355 -0.15056679
H -0.49677092 -1.5274096 0.9279615
H 1.6628325 -0.73019665 0.31164208
H 1.1111493 -0.9782284 -1.3659904
