12

N 1.079228 0.04528517 -0.33304635
C 0.70192134 1.2337388 0.053341936
C -1.1597402 0.030248817 0.38055262
N -0.5147443 -2.0184214 -0.2854214
C -0.093425214 -0.643256 -0.11121375
O 1.4586403 2.34098 0.054873955
N -0.5949008 1.3058901 0.48384896
H 2.324425 2.080539 -0.28524145
H -1.5571183 -1.4663626 0.16967697
H -0.55293864 -2.3559356 -1.2459404
H -0.056333143 -2.7051826 0.31114045
H -1.0350142 2.1524763 0.8074286
