10

O -0.32117617 1.7877342 0.6150606
C -0.80172366 1.0527718 -0.22632922
C 0.994124 -0.7329115 -0.7848302
C -0.4192907 -0.37973005 -0.34765196
N 0.5415331 -0.7252737 0.6945797
H -1.5034626 1.4302453 -0.99321496
H -1.219993 -1.0896058 -0.54527885
H 0.4594032 -1.6264384 1.1431192
H 1.5489867 0.21828936 -0.8707247
H 0.7215994 0.06491884 1.3152703
