10

O 0.67429185 0.3063733 1.7813923
C -0.20514964 -0.5863068 -0.24442157
C 0.5795484 -0.6405868 1.0341345
C 0.32372317 0.34888697 -1.2856348
N -1.0980039 0.5564901 -0.27323794
H -0.6480286 -1.5321472 -0.55086297
H 1.1068412 -1.5911939 1.2364762
H -0.95582217 0.89221805 -1.3497552
H -0.82163465 1.2212888 0.44974208
H 1.0442344 1.0249778 -0.7978326
