10

O 1.8353183 -0.16051589 0.77642906
C 1.137458 -0.81171376 0.033036392
C -0.11736081 -0.2684436 -0.560455
C -1.0618554 0.38689366 0.39363194
N -0.2930541 1.1806047 -0.5374637
H 1.3979899 -1.8524992 -0.24581532
H -0.5072893 -0.7835026 -1.4349946
H -2.1281707 0.32755554 0.19205213
H -0.77327335 0.39407238 1.4430488
H 0.5102376 1.5875487 -0.059469763
