12

N -0.43390518 -1.6651437 2.3272054
C -0.34519145 -0.76978195 1.60472
C -0.25394952 0.36297685 0.66237015
C 1.1517836 0.48011765 -0.0076387515
N 1.0035062 -0.0789398 -1.3497115
C -0.24164124 -0.24319269 -1.5364141
N -1.1002898 0.15218048 -0.5104811
H -0.53597 1.2770011 1.1911582
H 1.4526869 1.5299253 -0.081936926
H 1.924973 -0.053631987 0.5507692
H -0.6653003 -0.6217946 -2.462962
H -1.9567024 -0.36971635 -0.3870786
