12

N 0.40377161 -1.30276823 2.59728536
C 0.52155247 -0.56450778 1.71895684
C -0.65889866 1.10443337 0.33917807
C 0.65477352 0.35727547 0.56282024
N 0.79251934 -0.32182634 -0.70870912
C -0.53307221 -0.31203815 -1.34449534
N -1.29545449 0.73939164 -0.69055369
H -1.02981833 1.86025825 1.02644071
H 1.49072627 1.03517625 0.76729020
H 1.19465708 -1.24537269 -0.62579202
H -0.44976250 -0.09696127 -2.41383685
H -1.09099428 -1.25306022 -1.22858443
