12

N 1.11931780 -0.82156308 0.94903213
C 0.07454748 -0.38196603 1.52238655
C 0.85027153 -0.77702888 -0.48940857
N -0.01445912 2.57446397 -1.32230186
C -0.19599105 1.46900349 -1.04052204
N -1.00102367 -0.02517037 0.70172780
C -0.45304634 0.06610154 -0.65415102
H 0.69256753 -1.79413990 -0.86495636
H -0.04624242 -0.32993209 2.60135567
H 1.69709821 -0.34403943 -1.02622262
H -1.58727735 0.73674262 1.01005638
H -1.13576231 -0.37247199 -1.38699598
