12

N -0.55935735 0.067785285 1.0851859
C -1.177619 0.71110016 -1.1775483
C 0.78018016 0.40933183 1.3011082
N 1.6241429 0.01775309 0.43628517
C 0.86073816 -0.6854312 -0.59629697
N -1.6106138 1.5610149 -1.8291287
C -0.63966274 -0.36038604 -0.31382713
H 1.0497831 0.9317501 2.215365
H 1.1756871 -0.36645666 -1.5922021
H -1.2779286 -1.2415693 -0.4217268
H 1.036312 -1.7636371 -0.5122292
H -1.2616621 0.71874505 1.4050151
