12

N 1.026579 -0.96921474 -1.0066826
C -0.07758261 -1.0759041 -0.2828271
C 1.6583828 0.1866633 -0.967887
N 1.3153898 1.2561334 -0.18806317
C 0.17120214 1.2074082 0.4180931
N -2.0750084 0.21481426 0.63937855
C -0.72685564 0.059940662 0.34872335
H -2.5537457 -0.6481706 0.36882472
H -0.62510526 -0.5350763 1.3565966
H -0.14114165 2.0587645 1.0275867
H 2.5452917 0.30821154 -1.5796628
H -0.51740575 -2.0635703 -0.13408032
