12

C 1.42719268 0.96530435 -0.08462483
C -0.68197227 -0.39369861 0.18196969
C 0.22880772 0.21314315 -0.59029963
O -0.60471255 -0.52900611 1.53167070
N -1.89200148 -0.92215168 -0.25958116
H 1.36439719 1.18373341 0.99027661
H 2.36914091 0.42858242 -0.25509960
H 0.28199726 -0.28200976 1.80911181
H -2.11726007 -1.80146592 0.19024636
H 0.06437095 0.18134321 -1.66477037
H -1.95281498 -0.98018188 -1.26454674
H 1.51285399 1.93640744 -0.58435262
