11

N -0.62090725 1.4010911 1.8975645
C -0.54346955 -0.6042397 -0.5718945
O 1.1495405 0.8492733 0.3076556
C 0.17400937 0.9109678 1.149109
C 0.90561336 -0.13586052 -0.75312537
O -0.6896225 -0.70567137 0.8149897
H 1.1081576 0.37121293 -1.6986433
H -1.1716564 0.28821582 1.5167521
H -0.688935 -1.5672435 -1.076384
H -1.2393445 0.13445522 -1.0075606
H 1.6166142 -0.94220126 -0.5784632
