11

N 2.257182 -0.64396095 0.7231393
C 1.104564 -0.31852132 0.3406809
O 0.5075394 -0.90241206 -0.7231293
C -0.8562093 -0.4969274 -0.7563019
C -0.83442223 0.80424535 0.037849367
O 0.28942186 0.6193649 0.897071
H 2.547173 -0.0648105 1.5037297
H -1.4757103 -1.2642678 -0.27602515
H -1.1579698 -0.3743648 -1.7978773
H -0.66023475 1.6771568 -0.60157704
H -1.7213336 0.9644978 0.65243995
