11

N -0.50814825 1.501266 0.87377167
C -0.20635869 -0.30757686 -1.4633881
C 0.12823328 -1.1445066 -0.48854798
C 0.43051845 -0.77147293 0.8900493
C 0.17605071 0.38461024 1.501746
N -0.42092597 0.41976285 -2.4070663
O 0.2740953 2.2388008 0.3122163
H -1.3202548 0.88103664 -2.5111322
H 0.35957924 0.5374517 2.5640745
H 0.18025406 -2.1936119 -0.7607021
H 0.9069566 -1.5457599 1.4889791
