11

N 0.7682484 -0.33050594 1.7488667
C -0.24023673 1.2282962 -0.07777922
C 0.53624773 -1.2309997 0.6710632
C -0.62424505 1.1184942 -1.4859691
C 0.20754863 0.13819805 0.53895384
N 0.63254666 -2.4194188 0.3147982
O -0.56993884 0.09431116 -2.1374912
H -0.32507455 2.1733084 0.44784912
H 0.2313571 -0.31942505 2.6004782
H -0.974462 2.065962 -1.953061
H 0.35800862 -2.5182207 -0.6677085
