11

N 2.45316881 0.56598517 0.12009965
C -1.23162034 -0.23245480 0.03938312
C -1.33729773 -0.20769657 -1.42032128
C -0.05329926 0.04687430 0.58958314
C 1.32761350 0.35186349 0.60570787
N 0.59959842 0.25792939 1.82535705
O -0.41823020 0.04505275 -2.17385547
H 2.40123539 0.57733105 -0.90343665
H -2.35049654 -0.43220903 -1.82224702
H -2.09145596 -0.47802329 0.65331266
H 0.70078378 -0.49465244 2.48641629
