12

O 0.12759838 -1.0890954 0.55745685
C 0.92554724 0.42637908 -1.1418355
C -0.37486827 -0.042497136 1.3831824
O 0.52151424 1.5535257 -0.93163157
C 0.09787697 -0.8083135 -0.827476
O -1.4697655 0.62675345 0.8546147
H -0.9297093 -0.63620865 -1.1759276
H -0.6887137 -0.5470912 2.300113
H 0.5186672 -1.6914347 -1.3170328
H -1.1275992 1.2809559 0.22338411
H 0.44812948 0.6569512 1.6024269
H 1.9513226 0.27007556 -1.5272744
