11

N -0.35810608 0.49489787 1.963013
C -0.15635788 0.18340689 0.613516
C 0.5249282 -0.8688606 0.054439068
N 0.34681135 -0.71227175 -1.3133818
C -0.4199082 0.3857492 -1.4950944
N -0.7376295 0.95671046 -0.35689184
H -0.7481842 1.4245926 2.0443711
H 0.4746485 0.4129164 2.5291114
H 1.0814474 -1.6932119 0.46974885
H 0.71052724 -1.3133392 -2.0322185
H -0.7181768 0.72941005 -2.476613
