11

N -0.11694219 1.26122780 1.83775503
C -0.15163931 0.64941860 0.72294147
C 0.64129781 -0.63410724 0.44992237
N -0.57907370 0.04504340 -1.29218781
C 0.23978711 -0.91738398 -0.95614191
N -0.87962479 0.99971988 -0.41432749
H -0.72275264 2.07892126 1.79077082
H 0.35941652 -1.43024943 1.14639412
H 0.51085293 -1.70887340 -1.63781270
H 1.71984628 -0.46975387 0.55537802
H -1.02116800 0.12603699 -2.20269205
