12

N 0.9298361 0.27476615 -1.0639249
C -0.09439684 -0.9422315 0.4543628
C 0.9993473 -0.9320907 -0.61369854
O 0.51476187 -0.93156004 1.7319851
C -0.94523156 0.31920475 0.18692043
N -0.022694234 1.2221059 -0.5044853
H -1.2831652 0.76435256 1.1224927
H -1.809845 0.06922335 -0.43889934
H -0.6930436 -1.854671 0.42562905
H 1.2781838 -0.34513927 1.6966364
H 1.6015118 0.68788517 -1.6976522
H -0.47526446 1.6681546 -1.2993662
