10

C -0.21795920 0.84740226 -0.41333110
O 1.03781427 1.31013351 -0.79843108
C -0.32440655 -0.33873276 0.19079510
O -1.50352966 -0.95227565 0.46881964
N 0.75774385 -1.07695133 0.64995735
H 1.28566153 2.02214715 -0.19178386
H -1.08504184 1.44953155 -0.67260495
H 1.61473158 -0.71691990 0.25583335
H -2.21017116 -0.47418285 0.01630525
H 0.64515731 -2.07015241 0.49444036
