9

O 2.5038035 -0.30413684 -0.05208831
C 1.4267291 0.22069103 -0.1328273
C 0.21178569 -0.23505798 0.66388386
C -1.0240823 -0.09583425 -0.10581655
C -2.013801 0.03621049 -0.77758497
H 1.2518845 1.0987033 -0.7890598
H 0.16285448 0.39685637 1.5615828
H 0.37738162 -1.2646825 0.999926
H -2.8965552 0.14725041 -1.3680156
