14

C 1.5118375 1.6646724 -0.5316383
N -1.1025996 -0.39492416 1.0139544
C -1.1567907 -2.1014323 -0.18884772
O 0.12529024 -0.6863131 -0.759633
N 0.36665982 1.3245883 0.28721675
C -0.20579168 0.07942522 0.19689664
H -1.0876236 -2.2993085 -1.2538862
H -0.4618847 -2.6716943 0.41330075
H -1.5152113 0.18693328 1.7373357
H 2.4462993 1.2270792 -0.15644835
H 1.3405915 1.2889978 -1.5425259
H -2.1800041 -2.1433656 0.16953987
H 0.3010124 1.7737255 1.1851617
H 1.6182145 2.7516167 -0.57042646
