12

O -0.5432532 0.6185894 -1.6946925
C 0.18784663 1.1734943 -0.6311391
C 0.36329395 0.16191506 0.48657396
C -0.71274483 -0.78935266 0.83475965
N 0.4205646 -1.2210715 0.015095035
H -0.23552783 -0.2977253 -1.7645085
H -0.36194 2.0503993 -0.27021322
H 1.1822139 1.514937 -0.9602614
H 1.0487654 0.45435274 1.2796379
H -1.6575278 -0.73711425 0.30397832
H -0.77401215 -1.1473186 1.86026
H 1.0823213 -1.7811058 0.5405098
