12

O -0.7119979 -1.6277047 1.0276213
C 1.3661195 0.2641553 -1.1765213
C 0.020722035 0.6118994 0.36784866
C -0.9539601 -0.23209682 1.1265349
N 0.05200173 0.53358895 -0.99215347
H -1.9757341 0.0044014645 0.7728002
H 1.9730036 0.8666517 -1.851982
H 0.68248093 1.3101274 0.8658497
H 1.7769614 -0.63767236 -0.7472887
H -0.66403145 0.74941427 -1.6744606
H -0.661009 -1.8460317 0.088535555
H -0.9045565 0.003266942 2.1932156
