11

N 1.15912976 -0.36952236 2.71474389
C 0.80297446 0.62627682 0.31673678
C 1.01075597 0.08371950 1.66360380
C -1.35567648 -0.36299146 -0.72755846
C 0.09761102 -0.37589641 -0.57843384
O -0.50241185 0.17342957 -1.73281794
H 1.77268512 0.89813619 -0.11427365
H -1.94302165 0.37221698 -0.17988609
H -1.88075168 -1.27737124 -0.99818419
H 0.20617173 1.54205881 0.38204663
H 0.63253383 -1.31005654 -0.74597669
