11

N 0.9354227 -1.4835821 0.68779707
C 0.15029788 1.2574733 -1.8303787
C -0.6491584 0.40897104 0.34024265
C -0.7168699 1.3646706 -0.8154048
C 0.5043399 -0.4627766 -0.069317445
O 1.0370007 -0.18272346 -1.1534792
H -1.5593183 -0.1926971 0.46377832
H -1.4668156 2.1529374 -0.8474316
H -0.44399428 0.8970315 1.301855
H 1.7052054 -2.045477 0.35616958
H 0.5038899 -1.7138277 1.566169
