11

N 0.13491614 0.7381371 1.8121266
C 0.018059611 -0.5350495 -1.5837593
C 0.17750499 0.32102698 0.5137521
C 1.2690449 0.075902745 -1.5106021
C -0.71492785 -0.4186047 -0.24215345
O 1.2808396 0.58118236 -0.17688031
H -0.78437865 0.8648741 2.207312
H 0.8047297 1.4620893 2.0383105
H -0.43015808 -1.0070877 -2.448828
H -0.015503757 -1.4062437 -0.5934379
H -1.7401267 -0.6762269 -0.015840495
