9

C 0.5623098 0.08249372 0.6609567
C -0.24505623 1.053902 0.1552269
C 0.6409616 -1.2751628 0.03432455
C -0.9973475 1.7269875 -0.6818298
O -1.6310651 2.5550225 -1.2175815
H 0.28764835 -2.025943 0.7499501
H 0.09043194 -1.3768903 -0.9110151
H 1.7028381 -1.4953401 -0.13045068
H -0.41072106 0.75493056 1.3404188
