10

N -1.049116 0.26250738 0.3635536
C -0.65975535 -0.96879697 -0.09950646
C 0.66905606 -0.8860168 -0.439232
C 1.095029 0.44430026 -0.17136323
C 0.012172908 1.1303871 0.32286012
H -1.9748254 0.49603367 0.68081754
H -1.3591866 -1.7912558 -0.14591552
H 1.2751372 -1.6894686 -0.83512646
H 2.086648 0.8476067 -0.32451206
H -0.095159724 2.1547027 0.6484244
