9

O -1.271569 -0.40971532 -1.4757444
C -0.38012296 -0.2098044 -0.5021316
N 0.1655997 -1.2066997 0.19755995
N 1.0573275 0.7305269 0.8586418
N 1.06733 -0.6833006 0.99472326
C 0.119009145 1.0082504 -0.056964796
H 0.7692951 0.11888991 1.9025422
H -1.4034476 -1.3643698 -1.5606837
H -0.12342182 2.0162225 -0.35794282
