9

O -1.9683053 0.42380258 0.07692344
C -0.6572748 0.13450179 0.030833095
N -0.11025158 -0.8955278 0.6548769
N 1.1745428 -0.7819754 0.329839
N 1.4980463 0.22722943 -0.4466429
C 0.3397716 0.8440024 -0.6622769
H -2.3999472 -0.23687235 0.63415897
H 1.8596207 -1.4425868 0.65810645
H 0.26379746 1.727426 -1.2758181
