11

N -0.8805022 -0.56745267 -0.98029804
C 0.5593831 0.23543556 0.7313279
C 0.40760076 -0.4054318 -0.570205
N -0.8093559 0.6527056 0.93028355
C -1.5448393 0.120823294 -0.06228727
N 1.5808228 -0.39605173 -1.1607287
H -1.1950669 1.1253146 1.7301685
H 1.7933552 -0.9944952 -1.9519374
H 0.901663 -0.4203772 1.5371408
H 1.8022517 0.3613519 -0.0814091
H -2.6153123 0.28817743 -0.12205504
