11

N 0.9470405 1.1436646 1.1238266
C 0.11830093 0.32450786 0.35757297
C -1.2048318 0.12510605 0.31117776
O -1.5093383 -0.73362994 -0.738022
C -0.34482473 -1.0918338 -1.3604413
O -0.2708914 -1.8093518 -2.3222404
N 0.66387993 -0.46573254 -0.6557068
H 1.6119819 0.621048 1.6814936
H 0.41790125 1.7649311 1.721595
H -2.026205 0.49637634 0.9028616
H 1.5969868 -0.37508595 -1.0221173
