11

N -0.46478292 0.61518914 0.9296489
C -0.30898026 -0.28724232 -0.25283644
C 0.7875997 0.96068114 1.2947369
O 1.247464 1.6208651 2.180692
C 1.0379987 -0.34594792 -0.5460054
O 1.7356161 0.32006598 0.33946326
N -1.3539046 -0.5798159 -1.1519688
H -2.154559 -0.9797515 -0.6752929
H 1.5513017 -0.83879846 -1.3615807
H -0.41085494 -0.7550347 0.85612726
H -1.6668984 0.2697894 -1.6129831
