11

C -1.1789676 0.5781276 -0.6842377
C 1.0585399 0.49999893 -0.47097868
O 1.2135487 -1.265142 0.7816675
C -1.229735 -0.53319424 0.19195431
C 0.45844713 -0.2555933 0.6771012
N -0.47700068 1.3725076 -1.2073287
H 1.7936326 1.2688408 -0.24339779
H 1.2795173 -0.11604178 -1.336515
H 0.27127522 0.3967496 1.5593985
H -1.8801239 -0.45623022 1.0584701
H -1.3091336 -1.4900229 -0.32613394
