11

C 0.25356898 -1.7249191 0.15071157
C -0.4967784 -0.70724577 0.018449608
C 0.95009935 -0.021716101 -0.39196077
C -1.7151947 0.110285014 -0.16698448
O 1.0586604 0.38507208 -1.5192229
N 1.7291667 0.37223145 0.657598
H -1.7965957 0.41628918 -1.2146465
H 2.5841572 0.8500601 0.41448963
H 1.7233233 -0.19285657 1.4922739
H -2.590272 -0.49071702 0.095650166
H -1.700135 1.0035167 0.46364167
