11

C -1.40079185 -0.44523059 1.06028962
C 0.85773236 -0.29902471 0.25306101
C -0.63567274 -0.09198861 0.06239980
C -1.08572933 0.37749337 -1.29902276
O 1.57960107 -0.53322323 -0.69142238
N 1.28638057 -0.20597474 1.53536382
H 0.68205232 0.08853755 2.28248724
H -0.80210658 1.42383210 -1.45182504
H 2.26508755 -0.37001042 1.71983887
H -2.16609804 0.28386120 -1.41443142
H -0.58045519 -0.22827169 -2.05673831
