11

C 0.59526354 0.7326739 2.2423828
C 0.3052346 0.16740046 0.92763174
C 0.07527723 -0.3148683 -0.1524194
C -0.1436788 -0.9680572 -1.4416636
O 0.33236533 -2.0507998 -1.7139606
N -0.93922836 -0.26356244 -2.2996187
H 0.4613346 -0.02214399 3.0224283
H -0.0650808 1.5763065 2.4646368
H 1.6291167 1.0844377 2.2851496
H -1.0407947 -0.6256471 -3.2348595
H -1.2098092 0.6842605 -2.099707
