11

C -0.06882203 -1.744828 0.4852843
C 0.8088205 0.46484753 0.13742879
C -0.27628633 -0.5793622 -0.06663896
C -1.4123142 -0.20448563 -0.9860648
O 1.0167499 1.3182501 -0.697114
N 1.4996966 0.3489154 1.2975788
H -0.98997325 0.23820603 -1.8927281
H 2.254726 0.99750406 1.4651182
H -2.014695 -1.0748405 -1.2485576
H 1.2380586 -0.30550382 2.0141153
H -2.0559604 0.5412972 -0.50842196
