10

O -1.9659275 0.9897462 -0.18862484
C -0.8058073 0.349199 0.042073008
N -0.4765545 -0.3009961 1.1174185
C 0.80154765 -0.7655051 0.85661036
C 1.2178023 -0.38265184 -0.3799913
N 0.15744849 0.34825397 -0.9081231
H -2.494749 0.8638599 0.6118961
H 1.3388736 -1.3514922 1.5887623
H 2.130676 -0.54474694 -0.93218595
H 0.09668992 0.7943328 -1.8078351
