10

O 2.1588461 -0.36368814 0.024437197
C -1.0624518 0.4859244 -0.6468018
N 0.12551057 0.096917495 -1.1228966
C 0.813555 -0.25145167 -0.012050196
C -1.0995346 0.37902376 0.74371535
N 0.10493259 -0.0513263 1.1935948
H -1.9261274 0.5196402 1.4251884
H 0.2933999 -1.2352031 0.60292166
H 2.452841 -0.37302703 -0.8969052
H -1.8609712 0.7931906 -1.3112034
