12

O -0.4044053 1.7104076 0.85071045
C 0.21365699 -0.5302843 0.12940128
C 1.262137 -0.121244565 -0.82739
C -0.2184108 0.3823372 1.2697606
N -0.52807665 -0.26135412 -1.1176267
H -0.68333447 -1.096133 -1.6773227
H 1.6171831 -1.0295268 -1.3467304
H 0.1882926 0.48909637 -1.5726544
H 0.5706089 0.39268026 2.030538
H 0.15434337 -1.5866851 0.40495244
H -1.129216 -0.03631374 1.7286518
H -1.0427787 1.6870201 0.12770975
