11

N 0.33791658 0.67220366 -0.9214849
C -0.5550703 -0.021126019 0.044444222
C 1.6278903 0.6419579 -0.2942883
N 1.803122 -0.34477633 0.4902983
C 0.524032 -0.98535126 0.38661513
N -0.026198268 -0.8163477 -0.9986424
N -1.8879778 0.16689539 0.34575737
H -2.4619367 0.3272244 -0.47203103
H -2.0448036 0.87025076 1.0570133
H 2.3449743 1.4273039 -0.50979114
H 0.3380513 -1.9382348 0.87210923
