9

N 1.1120554 -0.9804605 -2.185472
C 0.8961637 -0.5112637 -1.1516379
C 0.61590284 0.05225623 0.15608011
C -0.7105044 0.6911858 0.37910485
N -0.39347157 -0.5781708 1.0053422
H 1.4899304 0.4270593 0.6820218
H -0.76853347 1.5435508 1.0510591
H -1.4043181 0.70927185 -0.45767957
H -0.8372251 -1.3534287 0.5211815
