10

N 1.4793779 0.49897882 0.9205673
C 0.22456324 0.6221913 0.37847424
O -0.447489 1.6277891 0.4456971
N -0.23172246 -0.54871 -0.23229136
C -1.4597101 -0.6395796 -0.8680421
O -1.8594586 -1.667612 -1.3547357
H 1.8821748 1.3738632 1.2201396
H 2.1282177 -0.16898005 0.5356356
H 0.29129645 -1.41136 -0.1695203
H -2.0072498 0.31341884 -0.8759243
