10

N 0.49273923 0.7256544 -0.3745738
C -0.572066 1.3554691 -0.9251949
O -0.94621104 -0.9682027 0.40800124
N 1.2450666 -1.0845665 0.82357347
C 0.23172615 -0.40736848 0.26264635
O -1.7607448 0.99764025 -0.9037526
H -1.5892078 -0.3575763 -0.06583076
H -0.31192404 2.2883835 -1.4473699
H 2.159152 -0.66545826 0.82020044
H 1.0514696 -1.8839749 1.4023005
