11

C -1.3053355 0.53894776 -0.5358906
O 1.2414318 -0.7475587 0.75432336
C 0.3072553 -1.6470838 0.84153825
C 1.0284741 0.39688843 -0.14591208
O 0.004426308 0.27831692 -1.034065
H -1.9256772 0.73344666 -1.412009
H 0.91462046 1.2502862 0.5356663
H 0.75838715 -2.350964 1.5854992
H -1.3068608 1.4214242 0.1193053
H -1.6790618 -0.33459765 0.0004434822
H 1.9623399 0.46089435 -0.7088989
