11

C 0.673853 0.90634584 -0.36821362
O -0.39689758 0.49987987 -1.212978
C -1.012282 -0.4537436 -0.36396542
C 0.66616064 -0.33673924 0.5288699
O 0.5297869 -0.30524188 1.8358297
H -1.1894306 -1.4133718 -0.85665184
H 1.5937041 1.0738486 -0.9368021
H 1.1696728 -1.2009709 0.057373967
H -0.50624955 -0.49679795 1.0160996
H 0.4200815 1.791931 0.22849175
H -1.9483995 -0.06514005 0.07194603
