11

C 0.13580477 1.0947845 0.32887986
O 1.0056189 0.25428158 1.1010424
C 0.6197531 -0.9085803 0.35643896
C -0.119653955 -0.03895706 -0.6769296
O -1.4282733 -0.35691732 -1.0521532
H -1.9630471 -0.45756596 -0.25362095
H 1.4854463 -1.488092 0.0151976105
H -0.7663275 1.3878889 0.88920546
H 0.64462173 1.9961475 -0.030506026
H 0.43855268 0.08168321 -1.6080228
H -0.052495707 -1.5646731 0.9304683
