11

C -1.23144870 0.37124551 -0.79199433
O 0.17666639 0.31945568 -1.00673105
C 0.36569606 -1.62113541 0.86813825
C 0.96672274 0.54397668 0.07814221
O 1.15522931 -0.59580478 0.98967803
H -1.57525206 -0.56813877 -0.35637569
H -1.49773599 1.21627082 -0.14155451
H -1.67944486 0.51289413 -1.77661213
H 1.97685996 0.76290984 -0.27519520
H 0.75210672 -2.28493677 1.68207912
H 0.59060020 1.34326272 0.73042524
