11

O 1.6363366 -0.40453243 0.47165367
C 0.3393856 -0.55714107 0.9970865
C -0.6885972 0.14009206 0.13326146
C -0.49731284 0.27366427 -1.3068318
O -0.23147862 1.367053 -0.42343235
H -1.7015666 0.18156469 0.535065
H 0.38768265 -0.16195929 -1.765471
H -1.3618112 0.41552368 -1.9539497
H 0.270375 -0.15977691 2.0225208
H 0.122046165 -1.628364 1.0354385
H 1.7249403 0.53387594 0.25465882
