11

O -1.1171432 1.2547444 -0.48627266
C -0.61342186 0.73089665 0.71892434
C 0.46190047 -0.30000412 0.45404315
C 0.42490724 -1.1359252 -0.74114555
O 1.2822449 0.0060115033 -0.67164326
H -0.34096307 1.4320548 -1.037807
H -0.1966269 1.5240616 1.3601168
H -1.4476807 0.26910758 1.2557
H 1.0129007 -0.6540861 1.325938
H -0.40952212 -1.0332813 -1.4314061
H 0.9434047 -2.0935798 -0.7464476
