9

O -1.2545831 0.03496555 -1.6159602
C -0.51115716 -0.13199584 -0.513513
N -0.67524856 -1.1478454 0.28822035
O 0.258931 -0.97679 1.2952381
C 0.9496272 0.14227185 1.0550394
C 0.5246515 0.7449993 -0.078570284
H -1.8792429 -0.7044951 -1.6660961
H 1.7146559 0.38412064 1.7789427
H 0.8723661 1.6547691 -0.543301
