9

O -0.95907134 0.080076024 1.3489295
C -1.367384 -0.36855143 0.09789929
N 0.96436995 0.14640906 0.22322288
O 0.13869128 -0.8210073 -1.8076667
C -0.12631361 -0.23659809 -0.61956733
C 0.38146877 0.31131947 1.3423826
H 0.99172443 -0.4833791 -2.1096327
H -0.8471464 0.73797363 -0.7514193
H 0.82366073 0.6337577 2.275852
