10

N 0.129304 -1.0105907 -0.51710147
C 0.19297335 -1.0789443 1.0605531
C 0.011958091 0.23783079 1.3432933
C -0.088960096 0.37100482 -0.94487256
C -0.15533899 1.1017205 0.17078826
H -0.6125085 -1.6468693 -0.80963385
H -0.009968408 0.62780976 2.355085
H 1.0048822 -1.408259 -0.8598734
H -0.16314286 0.63116175 -1.9919028
H -0.3091988 2.175136 0.1936645
