10

N 0.17504302 -1.05150726 -0.41121712
C -1.16570900 -0.89372789 0.41049429
C 0.88629350 0.22603628 -0.44914805
C -1.06548450 0.42056124 0.74095508
C 0.13834065 1.09092590 0.24047729
H -1.81417536 0.94150578 1.32778180
H -0.08483658 -1.39766505 -1.33498593
H 0.70524471 -1.79816243 0.04007224
H 1.83078822 0.32947843 -0.96556501
H 0.39449492 2.13255490 0.40113541
