10

O 1.9090669 -1.1002588 -0.625652
C -0.34507874 0.8616452 0.87480843
N -0.48778805 -0.5707737 -0.82078516
C 0.7807797 -0.54436123 -0.37128228
C -1.218467 0.33207995 -0.022203373
N 0.9010096 0.3028284 0.64249206
H -0.5255005 1.5920086 1.6492331
H -0.8304128 -1.133354 -1.5801423
H 2.0892184 -0.23900637 0.4339477
H -2.2728276 0.49919194 -0.18041627
