11

C -1.199191 1.166813 -0.13985156
C 0.01702204 1.3631034 -0.76716745
N 1.2824982 0.8996008 -0.04985278
C 0.60107344 -1.5753175 0.46915022
C 0.80473983 -0.16622457 0.20614201
O -1.3784564 0.36477885 0.8087624
H -2.0227375 1.7949923 -0.5171115
H -0.4731554 -1.770546 0.49554762
H 1.015888 -1.7696717 1.4645932
H 0.2300581 1.8754085 -1.6932505
H 1.1222609 -2.1829376 -0.27696145
