11

C 1.706911 -0.3812072 -0.4201578
C -0.99957246 0.40068266 -0.3029165
N 0.0056089084 1.5363926 -0.08909392
C -1.7053554 -0.07774667 0.91587657
C 0.45471862 0.3912502 -0.30576354
O -1.1735464 -0.13467662 2.0001426
H -2.7574136 -0.3959549 0.7672511
H 1.7265421 -1.134548 0.37239748
H 1.7358118 -0.90021783 -1.3822906
H -1.5678524 0.42047593 -1.2316614
H 2.5741475 0.27554983 -0.32378405
