11

N 1.9333355 -0.8699889 0.2941757
C -0.60967636 -0.93625623 0.33945754
C -0.85413677 0.9532911 -0.70866287
O 0.42208555 1.0128847 -0.195767
C 0.7532263 -0.30765313 0.3723464
O -1.5456189 -0.097502604 0.043951917
H 2.5768733 -0.2572877 -0.20219542
H 0.51389927 -0.17671806 1.5037609
H -0.9123989 -1.847428 0.8481766
H -1.3959981 1.8834246 -0.53480583
H -0.881591 0.64323395 -1.7604381
