11

C -1.4726986 -0.65012676 -0.46755865
N -0.17632453 0.7103776 0.6688582
C -1.040446 -0.31088263 0.80902684
C 1.5695527 0.3644344 0.011701168
N -0.07951018 0.9490095 -0.68911016
N -0.8382608 0.11038822 -1.3699083
H 2.048359 1.3357515 0.041619543
H 1.7504412 -0.18771598 -0.9070416
H -2.217674 -1.3742967 -0.77006465
H 1.7680259 -0.24122417 0.89504904
H -1.3114648 -0.70571506 1.7774283
