11

N 2.213702 0.0179299 -1.5349597
C -0.3858724 -0.41676986 0.8895096
O 0.8408464 0.022157492 1.4100184
C 1.0543994 0.08318753 -1.5148451
C -0.89144015 0.43424872 -0.26758388
O -0.23119119 0.11651929 -1.5254482
H -0.72903234 1.4941624 -0.059250742
H -1.1177535 -0.32134867 1.6991272
H 1.5572598 -0.19980776 0.8003081
H -1.9427582 0.2436181 -0.47834274
H -0.36815998 -1.4738972 0.58146703
