11

N -2.0698106 1.2720255 0.18188354
C -0.8743079 1.154549 0.2158653
O -0.65299004 -0.13721468 -1.0831779
C 1.1273941 0.07281018 0.3598566
C 0.1623867 -0.93740034 -0.282821
O 0.32630062 1.2527142 0.681774
H -1.8036182 0.3107706 -0.63561904
H 1.5854242 -0.26580602 1.2915735
H -0.40866858 -1.4705509 0.49654713
H 0.72695446 -1.6651616 -0.8771121
H 1.8809355 0.41326398 -0.34877008
