9

O -1.66396990 -0.29781889 0.61589558
C -0.39732282 -0.14043381 0.20282877
N 0.06524758 0.82551827 -0.61614726
N 1.77763422 -0.32937813 -0.13032194
N 1.39932603 0.69632067 -0.81249782
C 0.71342016 -0.88169672 0.51153366
H -2.26562342 0.29472938 0.15062182
H 0.79173952 -1.75452456 1.14033948
H -0.42045111 1.58728381 -1.06225233
