9

O 0.014213242 0.8863351 1.6692346
C 0.9504786 -0.65165913 0.009722811
N -1.0531402 0.2360781 -0.32695806
N -0.64962876 -0.6091693 -1.4301147
N 0.5583852 -1.0673308 -1.1926322
C -0.024965888 0.20459713 0.51761395
H 1.8853881 -0.95871186 0.45571437
H -0.848912 0.61783826 -1.4802238
H -0.83181834 1.3420222 1.7776431
