9

O -1.9663224 0.42451614 0.078407906
C -0.6564611 0.13516428 0.0316056
N -0.11001707 -0.89501035 0.65660965
N 1.1734843 -0.78166425 0.3296307
N 1.4967916 0.22687401 -0.44784325
C 0.3386751 0.8439012 -0.6632314
H -2.3956676 -0.2394457 0.633303
H 1.8595402 -1.4402412 0.66005635
H 0.25997722 1.7259059 -1.2785386
