11

O 1.0725994 -0.31724286 -0.96358556
C -0.67725015 -0.80644983 0.47870123
C 0.76769435 -0.44016853 0.91908485
N -1.5744027 -1.1709005 1.2212281
C -0.32789028 -0.27722678 -0.9485367
C -0.27965322 1.1559472 -0.5899637
H -0.89368165 1.5971426 0.18945998
H -0.85611916 -0.616318 -1.8439472
H 1.4909577 -1.2495695 0.9428894
H 0.8924854 0.28963533 1.7240726
H 0.3852601 1.8351508 -1.129403
