11

O -2.2977653 -0.621022 -0.43117914
C -1.1556497 -0.37423277 -0.1586539
C 0.1144926 -1.2135113 0.043358695
N 0.7558765 -0.0500878 0.7305894
C 0.8593113 0.9790398 -0.28481248
C -0.44300532 0.81354785 0.4150281
H -0.06043627 -2.0408444 0.73729676
H 0.65383977 -1.5764796 -0.8362822
H 0.9614539 0.6973866 -1.3306887
H 1.4579941 1.8316721 0.020978061
H -0.84611183 1.5545316 1.0943656
