10

N -0.87326189 1.18753551 1.39070698
C -0.32693825 0.51387805 0.48562442
C -0.00316291 -0.96379236 0.47479867
N 0.62242072 -1.19530651 -0.82728935
C 0.63530894 -0.07101042 -1.40152481
O 0.10694725 1.01123461 -0.73486902
H -0.96139378 2.16631705 1.12826369
H -0.90640617 -1.57157209 0.58627682
H 0.68107561 -1.22785768 1.28675564
H 1.02541049 0.15057382 -2.38874306
