10

N -0.54671216 -1.2490361 -0.8009916
C 0.0385932 -0.371312 -1.4945132
C -0.50071496 -0.7563619 0.5757957
N 0.51095176 1.367996 1.4051363
C 0.22688401 0.5667422 0.48385665
O 0.5370194 0.7423086 -0.85711944
H 0.20049717 -0.39090848 -2.5665588
H 0.03202467 -1.4601022 1.2224216
H -1.5106511 -0.62987465 0.9779175
H 1.0121081 2.1805484 1.0540552
