11

N 1.42558580 -0.55009052 -0.94641543
C -0.03629214 1.41480765 -0.80301385
C -0.93792042 0.59778176 0.04079443
C -0.33462071 -0.61957162 0.66861151
C 1.19689267 0.73001719 -1.09449001
N -0.63595234 -1.08869606 1.78907420
O 0.61490197 -1.26818297 -0.13127833
H 1.97465826 1.22109474 -1.67091818
H -1.73638174 0.29400476 -0.66327688
H -0.07776309 -1.91769520 2.00523320
H -1.45310821 1.18653021 0.80567895
