11

N 1.014661 -1.4488492 -0.31921095
C 1.246165 0.99344355 -0.32859048
C -0.9202417 -0.17068997 0.25865334
C -0.22915655 1.0655947 -0.22516027
C 1.7295638 -0.35811266 -0.20916471
N -1.9574711 -0.20095257 0.95833504
O -0.33038273 -1.3654099 -0.17357859
H 2.7953482 -0.56350464 -0.22540194
H -0.5447991 1.2837216 -1.2635859
H -2.2310631 -1.1625724 1.1727511
H -0.5726237 1.9273314 0.35495326
