11

N -0.20026374 1.5460143 -1.666541
C 0.23616286 -0.15377869 1.5707374
C -0.11297374 0.82710093 0.62607324
C -0.08867475 0.5975605 -0.84007454
C 0.42911604 -1.4530398 0.87792933
N 0.36343852 -1.7281317 -0.367127
O 0.057924267 -0.6988776 -1.2578952
H -0.23431231 1.872217 0.9083332
H -0.12466136 1.2094277 -2.6269605
H 0.68540573 -2.3242898 1.4701885
H -1.0111616 0.30579665 1.3053365
