9

N -1.5838977 1.083501 1.7821865
C -1.1445498 0.087925166 1.3683147
O 1.0220808 -1.470838 -1.2990954
C -0.32773328 -0.83911663 0.49158683
C 0.55297494 -0.54823095 -0.67639834
C -0.93002254 -1.5727329 1.3681327
N 0.7434803 0.7639497 -0.93289876
H 1.331869 0.99548 -1.7217572
H 0.3357985 1.5000633 -0.38007104
