11

N 1.3038127 -1.2297606 -0.8977574
C 0.3031975 -1.1751641 -0.04065815
C 1.4419708 0.070507996 -1.2590209
N 0.60317665 0.9103738 -0.6872411
C -1.1950094 0.63350296 0.91280144
N -0.12779899 0.0899465 0.09896369
H 2.1861348 0.40793496 -1.9690906
H -0.7899794 1.3981131 1.5789636
H -1.6358167 -0.17235325 1.5014994
H -1.9578546 1.0784031 0.27011544
H -0.13183358 -2.0115047 0.4914244
