11

N 1.3892658 1.1400721 -1.0842415
C -0.52706176 -1.1987187 0.7081658
O -0.33735958 -0.17120771 -0.14434716
N 0.82685465 1.9424785 0.030654771
C 0.8507359 0.52510107 0.07368171
N -1.6932291 -1.7524447 0.37742996
H -2.2830396 -1.4332759 -0.38530022
H 2.3986557 1.220421 -0.9996098
H -2.0053542 -2.5564756 0.8935356
H -0.091424145 2.23353 -0.30015895
H 1.4719558 0.050519962 0.83018965
