11

N -0.698336 0.40310445 1.9829324
C 0.019161459 -0.26456618 1.0161014
O 0.7313505 -1.2182163 1.2475027
N -0.12085596 0.28535226 -0.2540203
C 0.5259427 -0.22916657 -1.3634871
N 0.4081338 0.3524461 -2.4868445
H -0.7307526 -0.08525068 2.86569
H -1.5472393 0.883689 1.7237397
H -0.6238507 1.150761 -0.3974023
H 1.0979861 -1.131909 -1.1407776
H 0.9384601 -0.14624393 -3.1934342
