10

N 0.32424703 -1.363223 1.4849412
C -0.22921027 0.60352314 -0.59262204
O -0.9968404 1.2537324 -1.2698232
C -0.044003736 -1.8099737 0.43594667
C -0.78826666 -0.24441025 0.54232323
N 1.118162 0.6273078 -0.7075458
H 1.5122951 1.1543212 -1.4725657
H -0.7891171 0.3469291 1.4613317
H 1.703426 -0.022287343 -0.20956244
H -1.810692 -0.54591936 0.32757616
