10

N -1.2263863 -0.7077896 -0.29395592
C -0.62801224 -0.0076580187 0.6957041
O -1.1223547 0.20011981 1.7830127
C 0.76503026 0.5562412 0.38119927
C 1.3069679 0.19432037 -0.92682123
N 1.6832247 -0.1195245 -1.9718984
H -2.1391897 -1.0970861 -0.114378124
H -0.7875074 -0.8795112 -1.1847093
H 0.70405567 1.6458911 0.46352383
H 1.444172 0.21499705 1.1683232
