10

O 0.33369023 -0.51031506 -2.2370572
C 0.14761017 -0.32338402 -1.0703334
C -0.9073782 0.48418728 -0.26521832
C 0.01117319 0.27033058 0.93979377
O 0.07298846 -1.1289686 1.1364311
C 0.9753279 -0.5529931 0.18760936
H -1.9084368 0.059235565 -0.16830586
H -0.9657654 1.5132487 -0.634822
H 0.20578544 0.9196969 1.7854078
H 2.0350049 -0.73103803 0.3264945
