10

O -1.538381 0.07724577 1.7120014
C 0.64608395 0.23148222 -0.81092507
C -0.909812 -0.16699637 0.6810241
C 0.85808426 -0.36483687 0.51126534
O 1.4056661 0.8579267 0.3519046
C -0.7698826 0.4676093 -0.6450275
H -0.97262865 -1.1986728 0.1639384
H -1.4433258 1.1461253 -1.1619837
H 1.4628744 -1.1877733 0.89624196
H 1.2613212 0.13789004 -1.6984396
