10

O -0.72961560 -1.43474278 -2.42111333
C -0.06909355 -0.77267763 -1.73100702
C -0.67781933 0.57899939 1.16471763
C 0.50050837 -0.01867794 0.51944193
O -0.54704329 -0.82989573 1.01541690
C 0.69194166 -0.01692847 -0.95820179
H 1.46625962 0.58403037 -1.41691566
H -1.44190805 1.03799783 0.53822058
H -0.61381672 0.94203000 2.18810535
H 1.42058679 -0.07013482 1.10133515
