9

O 0.81768906 -1.6753331 -0.76331705
C 0.27064425 -0.5619571 -0.2461937
N -0.3049381 -0.51150054 0.9437082
N -0.69070566 0.75973076 1.0234734
N -0.41163918 1.5246525 -0.0082465755
C 0.21127017 0.70624125 -0.85070056
H 0.6989158 -2.3903008 -0.12460639
H -1.1693455 1.1124507 1.8355081
H 0.57810915 1.0360163 -1.809625
