11

N 1.6175208 -0.07065148 -0.29499292
C 0.47687522 0.17901845 -0.9910536
O 0.36971512 0.14663637 -2.2007456
C -0.71710193 0.46723372 -0.115442306
C -1.1593264 -0.51957315 0.8755347
O -0.46566218 0.65589225 1.2721989
H 1.6576788 0.18477151 0.6807362
H 2.4756086 -0.17848602 -0.81469333
H -1.4490371 1.1383703 -0.5598744
H -2.2099972 -0.5585998 1.159619
H -0.59627384 -1.444612 0.98871297
