11

N 0.3275105 0.7001516 1.38041
C 0.692765 0.015849411 0.2638536
O 2.265649 -1.1694409 -0.84159523
C -1.5665833 -0.22074738 -0.63943905
C -0.24192958 -0.27404985 -0.8114242
O 1.9114352 -0.36057317 0.2118843
H -0.43499973 1.3549726 1.299238
H 1.0695443 0.9417088 2.0199733
H -2.2402337 -0.43008304 -1.464245
H 0.23911609 -0.5478855 -1.7439286
H -2.0222743 -0.009902664 0.32527313
