11

N 1.617146 -0.064081594 -0.29568082
C 0.4758858 0.1785919 -0.9903156
O 0.37029567 0.14216252 -2.1994877
C -0.71821415 0.4674382 -0.11448956
C -1.1581813 -0.51992065 0.87537706
O -0.46665487 0.6570672 1.2728673
H 1.6573434 0.18396889 0.6814015
H 2.4712908 -0.1824128 -0.817743
H -1.4488151 1.1398466 -0.5595814
H -2.2085335 -0.5594113 1.1585615
H -0.5915626 -1.4432489 0.9890903
