10

C -1.48413508 -0.47141779 -0.61602253
C 0.76053436 0.01907264 2.21569196
N 0.88641553 0.12289549 0.99858426
C 1.00112546 0.04226246 -0.26765818
C -0.19104821 -0.09140103 -1.13949964
N -1.41212237 0.76616118 -0.83157187
H -2.18363309 -1.19681902 -0.22273202
H 0.02902074 -0.23588932 -2.19409362
H 1.99405249 0.08838492 -0.70090884
H 0.59979029 0.95675019 2.75821046
