10

C 0.61209756 0.3479092 -1.0977986
C 0.026589451 -0.8879986 -0.7320701
N 0.43148813 1.1644025 -0.024114497
N 0.8934417 1.1661727 1.2133064
C -0.5237955 -0.79171854 0.5284527
C -0.45518297 0.61066306 0.9551247
H 0.079888046 -1.7836373 -1.3381321
H -1.0374061 -1.5788724 1.0683367
H 1.2880573 0.5872372 -1.9023536
H -1.3151777 1.165842 1.3292484
