11

O -0.73479160 0.51274489 -0.50746447
C 1.45114761 0.50474250 0.81793144
C 0.37068340 0.75152653 0.17413949
O -1.06788259 -1.64401200 0.35022311
C -0.90163168 -0.88067353 -0.79011413
N 0.99838638 1.92702650 0.64190659
H -0.00532456 -1.25181197 -1.29343801
H 2.13414173 -0.07542206 1.41214245
H -1.88872632 -1.36862858 0.78344416
H 1.41098743 2.45375276 -0.12833551
H -1.76698983 -0.92924503 -1.46043511
