9

N -0.16755043 0.76353619 1.22201086
C -0.21230794 0.86025308 -0.12488777
O -0.57717481 1.83110438 -0.74991916
C 0.24339859 -0.36292813 -0.83984268
C -0.12065007 -2.13599000 -0.72005989
C 0.11409417 -0.97704273 -2.02585242
N 0.85857111 -1.54181026 -0.20062837
H 0.26320522 -0.02202093 1.68055525
H -0.40158618 1.58489842 1.75862453
