9

N -0.9161076 -1.4972304 0.27133584
C 0.5654602 0.5744858 -0.38849422
O 0.9931824 1.2769372 -1.2772912
C -2.0346298 -0.9772997 0.02574891
C -1.3765132 -0.79030526 -1.5976036
C -0.442062 -0.47970575 -0.6861189
N 0.92594224 0.6447749 0.91173863
H 0.6301724 -0.047763277 1.5794395
H 1.6545552 1.2961063 1.161245
