11

C -0.98951745 0.8925809 -0.11734851
C 0.058207627 -0.19490653 -0.17175962
C 0.6761899 -0.73906535 1.0457661
O -0.31429726 -1.4644139 0.33680174
C 0.8400256 -0.2453601 -1.4075768
N 1.4483658 -0.24741375 -2.3895013
H -1.7179515 0.7627234 -0.9233638
H -1.5153451 0.84540427 0.8404945
H -0.5275606 1.8784727 -0.22337367
H 1.6798031 -1.1562464 1.004969
H 0.3620799 -0.331775 2.004892
