11

C 1.11999633 0.08969665 -1.13623649
C 0.24090269 -0.01139014 0.03345122
C 0.80981981 -0.04590773 1.40735108
O 0.20116384 -1.42428113 0.43640529
C -1.11872221 0.61415230 -0.18869194
N 1.83681426 0.24587230 -2.02742980
H -0.99029575 1.68469443 -0.36635149
H -1.71409784 0.49569648 0.72133800
H -1.62789349 0.17443649 -1.05165180
H -0.64459574 -1.56722316 0.89303533
H 1.88690811 -0.25574627 1.27878024
