10

C 0.59589094 1.3857468 -0.58297926
O -0.40524915 0.38610488 -0.38813952
C -0.030846028 -0.6238031 0.43031707
O 1.0494181 -0.71331275 0.9619658
N -1.0610834 -1.5056038 0.5823133
H 0.8541212 1.8654406 0.36527237
H 0.14985065 2.1127222 -1.2639707
H 1.4975588 0.9543628 -1.024127
H -1.8265464 -1.4667088 -0.0698771
H -0.8231145 -2.394949 0.98922503
