10

C -0.32762262 0.08352574 0.88010323
O 1.2980483 -0.013881061 -1.0902443
C 0.50925857 0.9751187 -0.57938665
O -1.2122726 0.7696299 0.27085975
N -0.5956135 -1.2094252 1.105401
H -1.5336986 -1.5575043 0.93795735
H 0.8731733 -0.38156572 -1.8770922
H 1.0436044 1.6576222 0.06085006
H -0.093505055 1.4577534 -1.3490298
H 0.038627915 -1.7812738 1.6405815
