10

N -0.65690595 -1.2175704 1.191989
C -0.18167655 -0.3052935 0.25704947
C -0.781904 0.73282087 -0.37948245
O 0.14301284 1.2670178 -1.2516687
C 1.2331433 0.5152281 -1.0804422
N 1.118236 -0.4283497 -0.2076563
H -1.3201568 -0.83755326 1.8519112
H 0.10279691 -1.6875618 1.6629736
H -1.7542652 1.1961403 -0.36365965
H 2.0977192 0.7651214 -1.6810141
