9

C 0.21320586 -0.16804168 -0.3752126
C -0.22073588 0.41342995 0.5940015
C 0.71514356 -0.8863434 -1.5351223
C -0.60517454 1.2042447 1.7014141
O -1.6172217 0.8378285 2.4426913
H 1.8082584 -0.92252344 -1.5244427
H -1.0240182 1.817994 2.7010903
H 0.3330727 -1.9104253 -1.5510631
H 0.39746982 -0.38616338 -2.453357
