9

C 0.7753881 0.118600994 -1.6553367
C 0.15296255 0.024812078 -0.33303124
C -0.34826517 -0.0420361 0.7619019
C -0.971715 -0.14934227 2.0651302
O -0.6607217 0.51830006 3.024137
H 0.8137958 1.1598897 -1.9841512
H 0.21711174 -0.46136832 -2.3946674
H 1.7996236 -0.263716 -1.6147697
H -1.7781801 -0.90514004 2.130787
