10

O -1.20888782 -2.32962916 -0.64619200
C 0.21703294 -0.98587466 0.87896705
C -0.54042302 -1.66894980 0.05268267
O 0.47372882 0.79074392 -1.31734727
C -0.17249295 1.11938464 -0.12600891
O 0.27967124 0.40150924 0.99514654
H -1.23480609 0.90982218 -0.29314901
H 0.84138021 -1.53243300 1.57992009
H 1.37939523 1.12556465 -1.27879758
H -0.03459846 2.16986222 0.15477860
