10

O -0.87256384 0.75325847 -1.5041033
C 0.27112833 -1.1952119 0.019456342
C 0.32500166 -0.77117366 1.4072661
O -0.48768705 -1.8476214 -0.6515737
C -0.04818471 1.1242688 -0.54171807
O 0.17610414 0.45214772 1.5555036
H -0.46717778 1.9426584 0.03745007
H -0.6085995 -0.1122518 -1.859884
H 1.0245608 1.0619901 -0.68116504
H 0.687418 -1.4080646 2.218768
