12

O 0.11893846 0.44932032 -1.8231413
N 0.20537922 1.859588 -0.92397964
C -1.1768265 -0.072148435 0.2653701
C 0.02989078 0.63851905 -0.36654615
N -0.25751126 -1.1349568 0.72419554
C 0.9210942 -0.28243217 0.48237643
H -0.38872775 -1.4079021 1.6911778
H -1.9725345 -0.39862522 -0.41094175
H 1.0571058 0.32120797 -2.0492342
H 1.7629396 -0.77912384 -0.017205326
H -1.5983443 0.55284053 1.0638195
H 1.2985965 0.25371256 1.3641088
