12

O 0.87484664 1.9615434 -1.2832866
N 1.0107899 1.4127197 -0.0039270883
C 0.3117208 0.36628738 0.1046431
C 0.1349634 -0.6073248 1.242525
N -0.5621906 -1.5133862 0.29599842
C -0.5873348 -0.47771895 -0.77036595
H 1.4667892 2.7218583 -1.2415093
H -0.49212733 -0.2177814 2.0545423
H 1.0512521 -1.0278677 1.667744
H -1.482008 -1.7946079 0.6120928
H -1.5666023 -0.017227191 -0.95551145
H -0.1600992 -0.8064948 -1.722945
