11

C 0.66461101 0.96226432 0.78038932
C 0.01832639 0.04540149 -0.01198935
C -0.31311145 -0.00519646 -1.46903089
N 0.70006263 0.49906360 2.06153039
N 0.11395899 -0.64957941 2.11265781
N -0.30113180 -0.93398148 0.86735986
H -1.37479199 -0.21897521 -1.63402524
H 1.10024826 1.91376783 0.51271306
H -0.78893634 -1.79975167 0.70347043
H -0.09052466 0.95843947 -1.93349911
H 0.27128863 -0.77145273 -1.98957625
