10

O 0.96686584 -0.9460409 -2.0208106
C 0.0043432456 -0.64708906 -1.3646796
O 1.3598858 -0.3186198 2.6141195
C -0.39973 0.20685767 0.9401185
C -0.08904501 0.58943576 -0.49060968
C 0.5374707 -0.0802683 1.8218842
H 0.8470715 1.144823 -0.58430964
H -0.90102017 -1.2909688 -1.3388681
H -1.4240376 0.11598096 1.2858653
H -0.90180457 1.2258893 -0.86270976
