10

O 0.95912665 2.0874884 -1.1677959
C 0.67277026 1.1132191 -0.54969984
O 1.1245755 0.75878775 0.7078005
C 0.49945408 -0.53731924 0.56766206
C -0.9670876 -0.3691338 0.5076812
C -0.12089337 -0.15123397 -0.74268055
H 1.0797327 -1.403398 0.8502405
H -1.5584562 -1.2785327 0.4775184
H -1.4281962 0.47473556 1.0160767
H -0.2610259 -0.69461334 -1.6668034
