10

O 0.66659162 1.17156054 -2.02400595
C -0.56569970 0.52243988 -0.05569407
O 1.99793262 -0.66022834 2.08729307
C 1.00266800 -0.64970477 1.47889157
C -0.13430844 -0.64025333 0.81143935
C -0.02802632 0.36415007 -1.46550431
H -0.22681091 1.48580978 0.33240592
H -1.66224740 0.53701971 -0.09416807
H -0.73796565 -1.53872482 0.88459980
H -0.31213391 -0.59206896 -1.95525765
