11

O -1.26090259 -0.66802591 0.30665633
C -1.29012829 0.59788300 -0.28072216
C 0.07747374 -1.11324995 0.18812286
O -0.00479732 1.18158258 -0.07180963
C 0.87707084 0.17025417 0.15876824
N 2.12145969 0.26700690 0.31442157
H -1.47555320 0.54046434 -1.36399899
H -2.04744569 1.20613863 0.21455698
H 2.42950261 1.23261821 0.22876171
H 0.33340800 -1.73644301 1.04644924
H 0.23991232 -1.67822923 -0.74120609
