11

C -0.5201984 1.135213 0.47951412
C -0.12686539 -0.23148316 -0.03071612
C 1.259836 -0.7134258 0.028324703
O 0.28045225 -1.1797323 0.93958056
C -0.9886572 -0.77327436 -1.0798949
N -1.6795388 -1.1680063 -1.9181892
H -1.5261388 1.1091982 0.9074187
H 0.18259148 1.4512469 1.254737
H -0.50891423 1.8670508 -0.33399183
H 1.6116639 -1.4448637 -0.6960147
H 2.0157695 -0.05192336 0.44923145
