11

C -1.5032895 0.82505494 -0.707211
C 0.18212864 -0.2685369 -0.09410033
C -0.59051543 -1.3341271 0.40694323
O -0.30335024 0.4683576 -1.1340818
C 1.5528417 0.06893652 0.37178445
N -1.1457913 -2.259376 0.84628606
H 1.9996139 -0.78096735 0.89255005
H -1.6093329 1.2216332 0.29360956
H 2.1694195 0.33121508 -0.49680698
H -2.3073068 0.7986438 -1.4335278
H 1.5555826 0.9291659 1.0545546
