11

C 0.99539238 1.24620839 0.66581512
C 0.31147084 0.05994133 0.06407768
C 0.93974009 -1.07533015 -0.46203952
O -1.01162136 0.09748487 -0.00325458
C -1.82429587 -0.76916387 -0.48824653
N 1.41205071 -2.04277122 -0.91910476
H -2.86787039 -0.49786816 -0.42112316
H 1.62101049 0.96222261 1.51965843
H 0.23791897 1.95277975 1.01566778
H -1.45019609 -1.69382723 -0.91058813
H 1.63640054 1.76032361 -0.06086253
