11

N 0.85902234 -1.62706976 -0.34518211
C 0.21856595 0.03838935 1.06030800
C 0.91938183 -1.17682190 0.89259000
N 0.10706720 -0.70767015 -0.99082553
C -0.30102903 0.30625855 -0.18933795
N -1.13592812 1.32192228 -0.66726424
H -1.35806508 1.98596596 0.06376686
H 0.11486637 0.63610095 1.95394133
H 1.47430850 -1.73138415 1.63840581
H -0.14450436 -0.86450244 -1.95290452
H -0.75368554 1.81881149 -1.46349764
