11

N -0.91889864 1.0936369 -1.201098
C 0.70183283 -0.8634147 1.3374735
C -0.2474299 0.24429213 -0.3152165
N 0.10994419 -1.0122826 -0.6761597
C 0.13100661 0.38516545 1.0039834
N 0.6959749 -1.70728 0.32440725
H 1.1255126 -1.1673859 2.2860625
H -1.1257066 1.9842852 -0.7667233
H 0.020207282 1.260782 1.6265687
H -0.41702512 1.2539676 -2.0667844
H -0.075418316 -1.4717662 -1.5525136
