9

O -0.60049685 1.08937037 -1.18089323
C -1.92492297 0.17356907 0.61438716
C -0.66919309 0.34230144 -0.24786181
N 2.74040992 -0.30106971 -0.18280725
C 1.54631814 -0.39613277 -0.08708773
N 0.34718760 -0.51706018 0.20886647
O -2.91972164 0.80437669 0.39845798
H -1.82008737 -0.56665141 1.42823484
H 3.30050652 -0.62870352 -0.95129605
