10

O 1.7573544 0.9693958 1.1258559
C -0.9117651 -0.8413782 0.16593783
N 0.103091516 0.61972475 -1.4331475
C -0.7938942 -0.28086415 -1.1291176
C 1.1221253 0.03196732 0.43607116
N 0.09546821 -0.56252 0.9795003
H 1.3258107 1.1020528 1.9872668
H -1.3150451 -0.76690435 -1.951657
H 0.28016874 1.2895589 -0.6509431
H -1.6633143 -1.561033 0.47023323
