10

O -1.9646635 0.9901945 -0.18975696
C -0.8063799 0.3506182 0.04003179
N -0.47703022 -0.29781935 1.1167856
C 0.8021185 -0.7651159 0.8577734
C 1.2181444 -0.38396782 -0.37943617
N 0.15678121 0.3469649 -0.9065297
H -2.494007 0.86538845 0.6109581
H 1.338915 -1.3490717 1.5915025
H 2.1296453 -0.5460441 -0.9315222
H 0.096476056 0.78885263 -1.8098066
