12

N -1.4785292 -1.1235685 -0.48978257
C -1.9470834 0.08816451 -0.23280028
C 0.14942946 0.656879 -0.7691238
N 1.6513236 0.08842054 1.1909288
C -0.1200292 -0.9177361 -0.54445225
N -1.1143712 1.1285135 -0.2271165
C 0.6093556 0.038569864 0.3915068
H -2.997644 0.23891227 0.004970387
H 2.2979112 0.86626345 1.1646616
H 1.7322088 -0.55638623 1.9653667
H 0.6864819 1.2031914 -1.5468618
H 0.5309469 -1.7112235 -0.9072971
