12

N -0.85064449 -0.74339546 1.57091010
C 0.38977897 -0.50544906 1.69673607
C -1.01716171 -0.59526041 0.13250715
N -0.04321410 1.51509020 -1.23583824
C -0.01887196 0.41263736 -0.40542609
N 1.06885799 -0.20670171 0.45741476
C 0.27401650 -0.96256368 -0.55400942
H -0.11008202 2.39306621 -0.73504263
H 0.94501584 -0.50171547 2.62941798
H -1.99398918 -0.72980458 -0.31874455
H 0.72125478 1.53608734 -1.89826384
H 0.63503923 -1.61199087 -1.33966148
