11

N -0.735968 -0.7561868 1.5608951
C -0.19405565 -0.13106057 0.4225828
C -0.12915161 -0.6123759 -0.86823994
N 0.4037148 0.39310992 -1.6183776
N 0.6931161 1.482232 -0.9089724
C 0.3326494 1.1785254 0.3305664
H -0.22193341 -0.5304994 2.4033089
H -0.77353436 -1.7612208 1.4633422
H -0.4170721 -1.5598795 -1.3007522
H 0.58833593 0.39014816 -2.6068323
H 0.45389888 1.907207 1.1224787
