11

C -0.53093934 -1.0794088 -1.4110907
C -0.016221033 -0.24999379 -0.28699353
N 1.1591005 -0.26096013 0.24932335
C 1.089449 0.6927949 1.2545139
C -0.14315155 1.2354236 1.2649869
O -0.87001354 0.63995737 0.27612895
H -1.422583 -1.6359946 -1.1081908
H 0.24576582 -1.7833644 -1.7118411
H -0.80063844 -0.45671195 -2.270487
H 1.9354643 0.9088117 1.8931557
H -0.6462327 1.989446 1.8504945
