9

N -0.69328135 -1.731447 0.7191401
C -0.03761377 -0.76100385 0.26416716
O -0.45780924 -0.008131783 -0.8149856
C -0.3122186 1.3530614 -0.7830497
O 0.0603707 1.9774215 0.16169137
C 1.2871002 -0.46724442 0.78615105
N 2.3531282 -0.2868361 1.1905003
H -1.5872452 -1.8240227 0.23768118
H -0.6124309 1.7482029 -1.761296
