9

N -1.3021314 -0.69442725 -0.4777269
C 1.404953 0.18777522 -0.6713777
O 0.7588585 -0.22861676 0.46576768
C -0.6151618 -0.07432993 0.54023033
O 0.9054877 0.7760555 -1.577331
C -1.8919475 -1.2287464 -1.3508935
N -1.1988368 0.4880317 1.4952351
H 2.4600413 -0.10000388 -0.5737749
H -0.52126294 0.87426174 2.1498709
