9

N -1.09669831 0.05864126 1.09535946
C -0.17658571 -0.69431532 0.40316438
O 0.06309993 -0.24392969 -0.88407471
C -1.88839584 0.70422745 1.68885200
O 0.78925631 1.80341896 -0.18680928
C 0.49444678 1.04750706 -1.05742699
N 0.31442266 -1.74698434 0.87194997
H 0.96216279 -2.16549576 0.20703726
H 0.53829144 1.23693032 -2.13805223
