9

O 0.85724233 -1.92944010 -0.70933046
C 0.35211516 -0.77885242 -0.30125425
N -0.36233016 0.82498155 0.28236212
N -0.26144048 -0.52530086 0.85123798
N -0.87184141 1.82640062 0.79582601
C 0.27540006 0.50902676 -0.88506503
H 0.70899000 -2.58354128 -0.01104314
H -1.22214767 1.53890501 1.71212058
H 0.52401204 1.11782069 -1.73485358
