9

O 2.0768204 -0.4914053 0.6372529
C 0.09186085 -0.54235643 -0.9031637
N -0.879371 0.19425116 -0.28386462
N -0.062083054 0.5176674 0.8927846
N -2.0416439 0.54203534 -0.51679146
C 0.84662193 -0.20816058 0.2474891
H -2.341975 1.109357 0.27876577
H 2.2209256 -0.06950057 1.4967076
H 0.08884441 -1.051888 -1.8491801
