10

O 0.034743536 -2.095978 -0.95054626
C 0.7999636 0.94999254 0.632498
C -1.3180596 -0.19272216 -0.41465807
N -1.4136742 0.98478836 0.10844163
N 0.96759146 -0.29259938 0.09886273
C -0.08885825 -0.9882509 -0.47653842
N -0.31530914 1.5895897 0.66120064
H -2.2180042 -0.6267913 -0.83819133
H 1.6807517 1.4183985 1.0617958
H 1.8708551 -0.7464273 0.11713521
