12

C -1.0456557 -0.23042874 0.5647729
C 0.88364214 -0.5850653 -0.5091212
N -0.004457702 -1.2492524 0.42735776
N 0.9184526 0.9392427 0.15266396
C -0.38329607 0.91122997 -0.17770466
O 1.8834234 -0.98264974 -1.0580891
H -0.10573409 -0.18875557 -1.3278573
H -1.9913538 -0.54137063 0.11351195
H -0.92794585 1.7374061 -0.6355512
H -1.2062128 0.052479375 1.610118
H 1.4717692 1.5388651 -0.4551167
H 0.50736856 -1.4017009 1.2950155
