11

C 0.39861298 -1.2123846 -0.40834364
C 0.85542625 1.1794662 0.52202165
C -0.09601502 0.1300066 0.080020726
O -0.15591022 1.1672721 -0.92860407
C -1.4043803 0.06670575 0.74309355
N -2.4097266 -0.01943751 1.3054693
H 0.33350584 1.9030975 1.1661988
H -0.32657105 -1.6667885 -1.0890547
H 0.8978194 1.4035032 -0.914581
H 1.3529778 -1.0721412 -0.92132676
H 0.55426085 -1.8792994 0.4451062
