11

N 0.64567942 -0.56624832 1.63773470
C 0.06195377 -0.09788112 0.44750867
C -0.01495292 0.40652799 -1.69895169
N -1.16299115 0.80469921 -1.22094364
C -1.13233604 0.48867008 0.11699525
N 0.77231123 -0.14437484 -0.73103508
H 0.29690627 -0.05752610 2.43991060
H -1.97045508 0.70114198 0.76597896
H 0.30161887 0.48382033 -2.72973302
H 1.72315725 -0.46382746 -0.81574917
H 0.47910833 -1.55500196 1.78828452
