11

N -1.6339576 0.5327395 -0.7329146
C -1.1756384 -0.21814203 0.32397473
C 0.19495326 -0.21973243 0.35692278
N 1.1698446 -0.7615007 1.2129692
C -0.5633695 0.9693073 -1.33977
N 0.57640684 0.54898554 -0.71978545
H 1.5267903 0.7978931 -0.9392186
H -1.8572214 -0.71433306 1.0007367
H 1.4904345 -1.6735703 0.90736145
H -0.547087 1.5845765 -2.2285223
H 0.81884456 -0.8462234 2.158246
