10

O -2.102306 0.22229211 -0.34082043
C -0.7833345 0.1012916 -0.060875393
C -0.1777324 -0.9021148 0.6708918
N 1.2302728 -0.47331032 0.4557391
N 1.399284 0.72968984 -0.17993233
C 0.16867922 1.062378 -0.49587843
H 0.87252563 -1.4022406 -0.14042944
H 1.9670055 -0.7742834 1.0822616
H -2.5460992 -0.5371625 0.0572474
H -0.028294815 1.9734604 -1.048204
