11

O 1.1153433 -2.1409798 -1.2646357
C -1.0351882 1.1768409 0.00034015448
N 0.68812513 -0.50628453 0.26719296
C -1.4893745 2.0249255 0.8772464
C 1.3273594 -1.6449109 -0.18574288
C -0.24826644 0.1589985 -0.5014481
H -0.37017924 -0.24696076 -1.4978911
H -1.1160697 3.0453198 0.8997026
H -1.8011475 0.34601206 -0.3376896
H 0.8739059 -0.16716397 1.2014862
H 2.0554917 -2.0457969 0.54143894
