12

N -0.8707659 -1.0639203 -0.6540707
C 0.7512293 0.7331942 -0.55975825
C 0.014172188 1.0278965 0.64749134
C 1.555305 -0.4198823 -0.7860253
N -0.7878594 0.16185176 1.3409866
C -1.2700282 -0.8162639 0.5594816
N 2.3002193 -1.286023 -0.98000765
H -2.0909057 -1.3726684 1.0200132
H 1.1481593 1.0567416 0.9820315
H -0.25576097 2.0850782 0.7536732
H 1.0086656 1.5864781 -1.1880965
H -1.5024307 -1.6924825 -1.1357192
