13

C 0.7356851 0.3897905 0.18112376
C -0.5801785 0.61390024 0.89573795
O 0.21598037 -1.73739 -0.76920027
C 0.6021766 -0.40836075 -1.0998288
O -0.579515 1.777924 1.5743778
N -1.600272 -0.13630545 0.93714553
H 1.1884474 1.360968 -0.03982043
H -1.4385505 1.8175412 2.0231676
H -1.421219 -0.9885625 0.40828666
H 1.4143167 -0.13693269 0.8641029
H 1.5659194 -0.40488482 -1.6290271
H -0.14767215 0.06316 -1.7549939
H 0.0448817 -2.2108476 -1.5910717
