10

O -0.6595702 -0.6856028 -1.8868928
C 1.5155765 -0.034788277 0.6770986
C -1.0905089 -0.49036437 -0.7788062
C -0.28188545 0.17755795 0.30925623
N 0.8761651 0.8916771 -0.20176572
H 0.19682659 -0.80023456 0.8006935
H -2.1185527 -0.77834 -0.48973876
H 1.0017016 0.56308895 -1.1614
H -0.86455864 0.72973555 1.0452096
H 1.4248064 0.4272705 1.6863455
