10

N -0.7816322 -0.50352937 -0.85487074
C 0.39876315 1.4011694 -0.73554254
N 0.8079998 0.5111599 0.2724388
O 0.84572923 2.4860954 -0.9735437
C -0.05391615 -0.5430633 0.24313928
O -0.6295496 0.8088577 -1.3993081
N -0.56850684 -1.490806 0.9990528
H 0.009624224 -2.0881572 1.5746795
H -1.4324886 -1.3886198 -0.15267855
H 1.4039768 0.80689335 1.0266329
