10

N 0.22576492 1.7672869 0.39503345
C -0.20176032 0.47950882 0.16215122
N -1.403573 0.051748984 0.35799006
O -1.3357224 -1.3419596 0.10276759
C -0.08020305 -1.6987746 -0.2591725
O 0.28452396 -2.8110645 -0.5218834
N 0.6453713 -0.5130895 -0.25656387
H 0.75189686 2.1769679 -0.36566898
H -0.53613937 2.3677273 0.68031925
H 1.6498412 -0.4783512 -0.2949729
