10

N 0.22276112 1.76673195 0.39524427
C -0.20007065 0.47980815 0.16153904
N -1.40268750 0.05021927 0.35481736
O -1.33504860 -1.33902031 0.09864971
C -0.08053811 -1.69726642 -0.25926741
O 0.28550562 -2.80975476 -0.51564577
N 0.64462554 -0.51169424 -0.25863699
H -0.54101801 2.36704851 0.67713066
H 0.75796155 2.17409980 -0.35932576
H 1.64850914 -0.48017145 -0.29450519
