10

O -0.12323808 -1.18261 -1.0851935
C -0.06558806 -0.4798478 0.1128628
C -1.3131704 0.37326923 0.33353108
O -1.4839886 1.0068996 1.3436248
C 1.1430907 0.44478106 0.14633219
O 1.9274825 0.45413697 -0.7706417
H 0.67432517 -0.9305716 -1.580692
H 0.023825614 -1.1532564 0.9813077
H -2.0245965 0.3744438 -0.5158289
H 1.2418573 1.0927553 1.0346974
