10

O 0.72619283 -0.07871049 -1.5444316
C -1.2331233 -0.113080956 0.30653766
C 0.64773446 0.01513828 0.97989804
O -0.5353062 -0.3563155 1.5706608
C -0.009849686 0.6329481 -0.20328163
O 1.765352 -0.21521074 1.3332753
H -2.1290827 0.4895926 0.4617475
H 1.6237342 -0.2875435 -1.2189302
H -1.4606308 -1.052864 -0.19919975
H 0.60497916 0.9660462 -1.486276
