10

O 0.03635531 0.11722015 -1.7640945
C -0.39680263 0.48290476 1.0263207
C 0.70730186 -0.21572113 0.43830717
C -0.09315369 -0.71502686 -0.78010404
N 0.42892256 1.2457583 0.31056336
H 1.6380823 -0.5499149 0.88452303
H -1.1452663 0.6227928 1.792082
H -0.1794612 -1.7970715 -0.95636296
H -1.17716 -0.4875827 -0.17495953
H 0.18118209 1.2966411 -0.7762753
