10

O 1.8327152 -0.15807502 0.773972
C 1.1345038 -0.8106997 0.033203285
C -0.11880089 -0.2696354 -0.5598933
C -1.0613912 0.3874518 0.39328203
N -0.28874657 1.1789623 -0.53700614
H 1.3977301 -1.8515155 -0.24413931
H -0.50676244 -0.78280115 -1.4359077
H -2.1272588 0.33064583 0.18944943
H -0.7762595 0.39358062 1.4440018
H 0.5142701 1.582086 -0.056962065
