10

O 1.3706267 0.47002247 -1.9285952
C -0.2685524 1.1063688 -0.21117643
C 0.6357031 0.35383904 -0.9633279
C 0.3760189 -0.8809014 -0.030741258
N -0.5905252 0.004387339 0.7336082
H 1.2012651 -1.2085625 0.6045516
H -0.31569472 0.14967191 1.7073677
H -0.13990739 -1.7380656 -0.46850136
H -1.5523043 -0.34437773 0.72259337
H -0.7166298 2.0876176 -0.16577889
