10

O -1.4973878 0.23811273 -1.3051151
C -0.5954515 0.11266984 -0.5171914
C 0.098766 -1.1810918 -0.1958296
C 0.7886885 1.4807107 1.0804898
N -0.14698699 1.2913965 0.17144191
H -0.68986636 2.0943253 -0.13958006
H 1.1720064 -1.1172348 -0.4061509
H 1.2434382 0.48439303 1.2667396
H -0.3466614 -1.9604926 -0.8152978
H -0.026545273 -1.4427893 0.8604936
