11

C -0.38852164 -1.26870460 0.18566166
C 0.75083926 0.67617300 -0.69639697
C 0.55051576 -0.19467647 0.41869554
C 1.23046531 1.89307591 -0.38543469
O 0.06595259 -2.15972177 -0.51907856
N -1.62073941 -1.29942494 0.77449442
H 1.22541292 2.71636066 -1.09466441
H 0.40628066 0.44457817 -1.70624779
H -2.04006913 -2.21624172 0.85122544
H 1.59708797 2.08124333 0.62123643
H -1.77722432 -0.67266140 1.55050784
