11

C -0.73251796 -0.17291169 -2.3158832
C -0.1639564 -0.1231219 -0.96925765
C 0.31895053 -0.08987383 0.13274887
C 0.97820866 -0.099055275 1.4386867
O 2.0853045 -0.56531197 1.6106117
N 0.2468722 0.4736602 2.438782
H 0.007349462 0.1492393 -3.053607
H -1.6078416 0.47652447 -2.399076
H -1.0336806 -1.1942364 -2.5599835
H 0.6157372 0.40473762 3.374935
H -0.71442604 0.74034965 2.302042
