10

O -2.07874390 1.14387031 -0.42491023
C 1.08042689 -0.29317505 -0.43370535
N -0.64835472 -0.12961266 0.92435322
C 0.63506136 -0.65093135 0.78407044
C -1.03086751 0.56754835 -0.21077249
N 0.07062727 0.44796229 -1.04179233
H 1.11168263 -1.22621222 1.56106569
H -1.25165069 -0.21967016 1.72329982
H 2.02028131 -0.49591693 -0.92140454
H 0.09153739 0.85613714 -1.96020420
