10

O -1.9640844 0.98698115 -0.18851353
C -0.80742776 0.34843242 0.039950855
N -0.47829667 -0.30015886 1.1172422
C 0.8022349 -0.76452047 0.8570635
C 1.2163869 -0.38333997 -0.37892345
N 0.15503632 0.3464935 -0.90997756
H -2.4903638 0.86765796 0.61498773
H 1.3411089 -1.3475995 1.5902991
H 2.1289444 -0.5452974 -0.9316523
H 0.096461244 0.7913509 -1.8104765
