10

O -1.2219548 -1.5004807 1.2211825
C 0.03737148 1.2621156 -0.16489106
N -0.7956766 0.5122504 0.6473142
C 0.8768809 0.41067708 -0.8113132
C -0.46886763 -0.7628114 0.4925754
N 0.5483971 -0.88973993 -0.38266557
H -0.021111432 2.3388906 -0.22320615
H 1.6702845 0.5853215 -1.5218598
H 0.97513825 -1.7528181 -0.67169726
H -1.6004617 -0.20340492 1.4145609
