10

O 1.16411042 1.07318171 -1.08461237
C -0.01321614 -0.02376875 0.66086740
C 0.81033591 1.06908848 0.07732425
C -1.43212169 -0.22488866 0.16903899
N -0.23891737 -1.06805905 -0.33992544
H -0.20938039 -2.03214226 -0.03961810
H 0.24601429 -0.86222827 -1.21310840
H -1.59893142 0.49457467 -0.64696674
H 0.24583883 -0.34645743 1.66803012
H 1.02626767 1.92069921 0.74897020
