13

C -0.60958401 -0.69523516 0.26596264
C 0.04845209 0.46916093 0.08064111
O -1.60993492 -1.14414895 0.79050471
C -0.43802509 1.76619571 0.63465290
O 1.28403629 0.48448457 -0.60373926
N 0.33694139 -1.89759378 -0.44457843
H 1.16490996 -1.46511206 -0.86104171
H -0.23273423 -2.37471474 -1.14015312
H 0.57795088 -2.56548226 0.28657886
H 1.18956928 1.09510478 -1.35134248
H -0.64217495 2.50087993 -0.15891267
H -1.36809583 1.60965569 1.18843647
H 0.29868939 2.21680545 1.31299094
