13

C 0.19822465 -1.5205551 -0.59827334
C -0.20598686 -0.054894123 -0.5823367
O -1.5716459 0.13268206 -0.23104462
C 0.73871684 0.7691399 0.3028599
O 1.9450579 0.61978495 0.26230404
N 0.09933351 1.656312 1.1101749
H 1.2470297 -1.6177409 -0.8826142
H -0.4275307 -2.075246 -1.3044553
H 0.079024106 -1.9679861 0.39798552
H -0.11161494 0.35958976 -1.591557
H -1.7575178 -0.43730673 0.52445376
H -0.88733494 1.8121488 0.9727535
H 0.6542447 2.3240716 1.6197495
