11

N -0.44362426 0.59364223 0.10023978
C 0.3087918 -0.62437624 -0.013778043
O 2.1734462 0.8329302 -0.34249943
C -1.791 0.5690531 0.23329832
C 1.7567706 -0.29684037 -0.26826015
O -2.446701 -0.45106637 0.27760327
H 2.4289763 -1.1701293 -0.3824732
H -2.2304308 1.5796478 0.29929623
H -0.06734633 -1.2544382 -0.8316324
H 0.23727387 -1.237124 0.89533764
H 0.07384435 1.458701 0.03286791
