11

C -1.2900121 -1.0207654 0.27207047
N -0.37058172 -0.19164826 0.5623236
C 1.5347933 0.98581445 -0.38794744
O -1.8473787 -1.8043708 1.188949
C 0.07965596 0.6119731 -0.50864124
O -0.6388593 0.9791238 -1.411611
H 1.6965472 1.5213354 0.55242115
H 1.8252223 1.6107004 -1.2335346
H -1.7003481 -1.1844374 -0.7215108
H 2.147234 0.07926187 -0.35390198
H -1.4362729 -1.5869871 2.041383
