11

N -0.06784782 -1.6400265 0.13024029
C 0.20383626 -0.5776323 0.93155897
O 0.79089475 -0.62850976 1.9940009
C -0.2487071 0.74323374 0.35924155
C 0.25452334 1.1966344 -0.9415647
O -1.0682836 0.69843024 -0.799601
H -0.72647536 -1.5243995 -0.6250938
H 0.12775974 -2.5623736 0.48607635
H -0.52658325 1.4819655 1.1083156
H 0.33012804 2.263274 -1.145678
H 0.930755 0.54940385 -1.4974964
