11

N 0.20868751 0.6654504 -1.9820517
C -0.45918134 -0.8958132 0.81224877
O 1.0978673 1.1098616 1.0468801
C -0.1424435 0.1401614 -0.8989656
C -0.08734062 0.578692 0.5478315
O -0.6344385 -1.1108189 -0.61778545
H 0.098639816 0.020875998 -2.7644837
H 0.3687665 -1.4960492 1.2005985
H -1.3857869 -1.0955192 1.352492
H -0.8958483 1.2665676 0.81010675
H 1.8310782 0.81659156 0.49312893
