10

O -1.92585880 1.27911785 0.00841734
C -1.05540447 0.43633293 -0.49838194
C 1.01971504 -0.64432730 0.48081659
N 1.51160908 0.48033942 0.80528688
C -0.25668248 -0.72846504 -0.28013809
N -0.40985911 0.17272242 -1.53475747
H 2.39764090 0.34471590 1.29438772
H -2.07145539 1.99343211 -0.63045418
H -0.68852615 -1.72402983 -0.37214376
H 1.47882118 -1.60983822 0.72696705
