11

N 2.35528941 1.91710369 0.35570295
C -1.12566074 0.28099339 -0.58357802
C -0.40764931 0.11990663 0.70177880
C 1.01814294 -0.33995704 0.43848910
C 1.78840056 0.91331226 0.39496605
O -1.41888264 -1.11269383 -0.26045154
H -2.00484217 0.92290196 -0.60345592
H -2.17220679 -1.13179154 0.34962337
H -0.59222009 0.26906885 -1.54100476
H 1.16312518 -0.87966144 -0.50957179
H 1.39650376 -0.95918329 1.25750180
