11

N 2.517649 -1.5411425 -0.7971969
C 0.27186283 -1.0286309 0.4609421
C -0.42468283 1.096691 -0.5509501
C 0.2942372 0.48668817 0.5912767
C 1.5293273 -1.3390698 -0.2378324
O -1.5042251 0.93823147 0.41973674
H -0.20557997 2.1335251 -0.80069137
H -0.71021724 0.5044383 -1.4279187
H 0.28285962 -1.5147315 1.4412304
H -1.4823209 1.6948137 1.0256715
H -0.5689098 -1.4308134 -0.12426792
