11

N 0.32434374 2.9285069 0.45088333
C -0.20762771 1.9093035 0.3509729
C -0.8555659 0.5998812 0.20438452
C 0.009486432 -0.35606983 -0.5959535
C 0.9157202 -1.2915962 0.06585816
O -0.33149484 -1.7205185 -0.46787247
H -1.824851 0.7360791 -0.2876919
H -1.0480525 0.17573512 1.1957375
H 0.2390395 -0.034977254 -1.6113561
H 1.7993902 -1.6518601 -0.4582566
H 0.979612 -1.2944843 1.1532942
