12

N -1.36482516 0.31080026 0.85134003
C -0.43436878 -0.78960876 0.80942904
C -1.16086875 1.34442208 0.11131803
N -0.14549422 1.59237902 -0.77310309
C 0.70414805 0.56979856 -0.78013253
N 0.40670139 -0.77816585 -0.40424572
C 1.83143862 -0.00223559 -0.43178946
H -0.98109420 -1.74015570 0.81309311
H 0.20897004 -0.74955223 1.68874636
H -1.90068802 2.14130950 0.17382769
H 0.17371753 -1.44807263 -1.13185936
H 2.66236345 -0.45091872 -0.92662427
