11

N 1.3419123 -0.3108502 -0.041326057
C 0.09081866 0.21720411 -0.12520766
C -0.056306694 1.4335849 -0.96241546
N -0.8829704 -1.4082139 1.2842699
C -0.99266297 -0.27354383 0.5280582
C -0.761697 -2.3957827 1.9187863
O 0.87236845 1.8921322 -1.5933703
H 1.4339447 -1.2806926 0.21589372
H -1.9692954 0.19214979 0.4974304
H 1.987215 0.035475988 -0.73311234
H -1.0633268 1.8985362 -0.98900676
