10

N 1.6611118 -0.75621384 -1.1736404
C 0.54047954 -0.3375301 -1.5705339
O -0.42729363 0.083621494 -0.738178
C -1.0508401 0.38910267 1.4867721
C -0.13325538 0.035339203 0.6192741
N -1.8959888 0.595254 2.354073
H -1.9717087 1.5586996 2.6680171
H 0.85316193 -0.29605275 0.917538
H 0.18184033 -0.25270617 -2.5999868
H 2.242493 -1.0195144 -1.9633358
