10

N -1.3217822 -0.64191437 -1.1599365
C -1.2074878 -0.74710923 0.092907906
O -0.1793199 -0.21577269 0.774963
C 0.76651025 0.47478315 -0.032531053
C 1.82031 0.9802858 0.8507921
N 2.674729 1.3979597 1.5080917
H -2.1637423 -1.1083711 -1.4881977
H -1.8768711 -1.252929 0.7937974
H 0.2901504 1.3085777 -0.5584581
H 1.1975037 -0.19550963 -0.78142846
