10

N -0.15786903 -0.7514853 -0.8448648
C 1.0594767 -0.28572035 -0.42075694
C 0.8366991 0.5967412 0.6071703
C -0.5713909 0.66439015 0.80957395
C -1.1576415 -0.17798966 -0.10072983
H -0.2964962 -1.4126923 -1.5884906
H 1.9761589 -0.6206662 -0.8837547
H 1.5924627 1.1378266 1.1590735
H -1.0858341 1.2672193 1.544538
H -2.1955657 -0.41762328 -0.28175887
