11

N 0.8752436 -1.2545726 -0.82094955
C -1.4168699 1.1649821 0.87797034
C -0.93933386 0.07289642 0.06163316
C 0.5303255 -0.09429996 -0.15884127
N 1.315074 0.8298105 0.23877352
N -1.5561051 1.4019606 -0.34390306
H 1.8360335 -1.5570475 -0.7555384
H 0.20286573 -2.0055153 -0.83214253
H -1.5647146 -0.8035907 -0.115772754
H 2.2868886 0.61822754 0.0063799024
H -1.5694072 1.6271493 1.8423907
