12

O 0.60630349 -1.32550402 -0.21271809
C 0.49193831 1.09278727 -0.81166232
C -0.19112908 -0.22801593 -0.60993352
O 1.77367934 0.90156410 -0.57574029
C -1.26605335 -0.04852646 0.47210383
O -0.64398364 0.07997339 1.73005678
H -1.83667996 0.86266846 0.28609496
H 2.23528390 1.74238039 -0.70547391
H -0.69401834 -0.44375661 -1.56739298
H 1.52773328 -1.03300312 -0.23921826
H -0.05850694 -0.68785689 1.79504097
H -1.94456717 -0.91271050 0.43884266
