12

O -0.47132856 -0.81643206 1.5891807
C -1.1900047 -0.4818553 0.4240663
C -0.21464731 0.03689366 -0.6427331
O 0.77610445 -0.9580531 -0.80598384
C 0.2360652 1.4086807 -0.23425394
O 1.5491331 1.3679917 -0.13790737
H 0.22752039 -1.4127673 1.2849379
H -0.7726592 0.18279237 -1.5826834
H -1.7292382 -1.3477718 0.014533399
H 1.8622416 2.2466943 0.12040723
H 1.6350163 -0.5229379 -0.71522546
H -1.9082031 0.29676467 0.6856618
