9

O -1.40954692 -1.62818531 -0.39757098
C 0.53265871 1.17655309 -0.10563480
N 1.15257035 0.22228504 0.82920805
N -0.59236022 0.52329333 -0.71179218
C -0.57124158 -0.62534515 -0.17394775
N 0.49941719 -0.83486293 0.78014206
H 1.28873218 1.47435401 -0.83995957
H 0.24281742 2.06717033 0.46003293
H -1.14304713 -2.37526251 0.15952224
