9

O 1.5833788 -0.28102636 -1.5382873
C 0.6206269 -0.14993829 -0.61332434
N 0.35088542 0.993128 -0.016772816
N -0.6653564 0.6255656 0.804117
C -0.9357191 -0.6784064 0.65382165
N -0.13337871 -1.2126157 -0.2451659
H 1.989559 0.58728266 -1.655983
H -1.0981803 1.306885 1.4056684
H -1.7118156 -1.1908746 1.2059263
