11

N 1.45545534 -1.56657093 0.66076211
C 0.73092237 -0.61739607 0.24814644
C 0.93422653 0.78459785 0.69270124
N 0.29564515 1.64095729 -0.01644337
C -0.40750503 1.40719343 -1.07592307
C -1.33833293 0.26934097 -0.68935641
O -0.33931052 -0.80668010 -0.57668833
H 1.08648941 -2.46411539 0.33589657
H 1.44797980 1.02078091 1.61525974
H -1.84435696 0.37917483 0.27792753
H -2.02121292 -0.04728281 -1.47228274
