11

N 0.2508767 1.3343366 -0.96799994
C -0.8402441 0.793913 -1.402696
C 0.76953024 -0.57349074 0.23650296
N 1.6061916 -1.3533293 0.7731427
C 1.1378732 0.7910913 -0.21823631
C -1.5062238 0.20234846 -0.17098783
O -0.5512278 -0.88609725 0.097022966
H 1.9989903 1.3112 0.18026504
H -2.4589767 -0.28462702 -0.35717627
H 1.1376634 -2.1934454 1.1223501
H -1.5444531 0.8581001 0.70781267
