12

C 0.7351384 0.28823707 -1.1301534
C -0.15172616 0.5778885 -0.17022707
C -0.11170365 -1.5814772 0.7747879
O -0.6248577 -0.26635283 0.7789968
N -0.77456236 1.8139406 -0.010185453
H 1.1303103 -0.70869064 -1.2724158
H -0.29348898 2.5678997 -0.47765648
H 1.0539112 1.0638982 -1.8133374
H 0.97725856 -1.5834652 0.9022713
H -0.9922599 2.0229673 0.9550355
H -0.3691975 -2.1027133 -0.15512475
H -0.57882243 -2.0921323 1.6180093
