9

O 0.83604515 -1.7218574 -0.62682635
C 0.27371964 -0.5743791 -0.21514823
N -0.66030896 0.06978248 -0.89575666
N -0.9062555 1.1242819 -0.12250733
N -0.21363592 1.2116371 0.9907908
C 0.56100935 0.13068002 0.9674204
H 0.43893418 -1.9626865 -1.4740669
H -1.5908455 1.8161068 -0.38078105
H 1.2613376 -0.09356541 1.7568753
