9

O 1.916469 0.16234034 -0.50940925
C -0.028866768 -0.84270406 0.5652212
N -1.3781698 0.83491874 0.07885089
N -0.23083667 1.1086606 -0.4975907
N -1.2820724 -0.40839145 0.7613795
C 0.62711585 0.14031248 -0.16420034
H 0.33238035 -1.781078 0.9575792
H -2.0291102 -0.19988547 -0.19933625
H 2.0730908 0.98582685 -0.9924943
