11

N -0.56215936 1.8771168 -0.7462624
C 0.10344474 -0.6546679 -0.94236743
C 0.17065454 -0.6351114 1.3075557
N 0.31265756 -1.4132878 0.22686976
C -0.18449965 0.6215347 -0.4901364
N -0.110139474 0.5886806 0.89799637
H -0.40289032 1.788594 0.7298232
H 0.5517373 -2.3913598 0.25027177
H 0.16458057 -1.0994959 -1.9218928
H 0.29051104 -0.97547597 2.3255696
H -0.33389688 2.2934725 -1.6374273
