11

N 1.3599988 0.13627091 -0.06696433
C -0.82037956 -0.43271518 0.19513038
C 0.5193559 -0.87404984 0.37840873
N -0.6359525 0.8555163 -0.3678508
C 0.66582775 1.1668857 -0.5110879
N -2.0233605 -0.86732936 0.3894281
H 2.367439 0.09331844 -0.055083096
H -1.989695 -1.7996633 0.79036325
H 1.0691531 2.0807617 -0.9172668
H -1.4213463 1.4345348 -0.61710167
H 0.90895927 -1.7935299 0.7820242
