11

C -0.25432232 1.1769708 -0.0032958149
C 0.8783848 0.13958451 -0.0840669
C -1.5740323 0.64740735 -0.34951085
O 1.9933655 0.5188717 -0.3401714
C 0.5338295 -1.2976235 0.20815797
N -2.6000717 0.20020176 -0.62864536
H -0.03126205 -1.377647 1.1428119
H -0.107032925 -1.6935201 -0.58630574
H -0.0015434516 2.0195236 -0.6549339
H 1.4479053 -1.8905954 0.27165335
H -0.28522047 1.5568261 1.0243069
