11

C 0.3422698 0.121137045 -1.5527534
C -1.5319939 -0.54318225 0.069508396
C -0.14095792 -0.073063165 -0.1824379
O -0.0035492333 -1.4965104 0.13387087
C 0.5128961 0.8612969 0.8117564
N 0.6702139 0.33294892 -2.6397367
H 1.602654 0.7624018 0.79961824
H -1.8914185 -0.9264601 -0.9029827
H 0.07504365 -1.58245 1.0978205
H 0.2500434 1.8913276 0.5568369
H 0.11479881 0.65255356 1.8084997
