11

C -1.58343860 0.21015277 -0.30893647
C -0.11643296 -0.02974759 -0.20987949
C 0.67057665 0.65668480 0.88483625
O -0.73085505 -1.29997717 0.18272303
C 0.67967479 -0.28071506 -1.41495837
N 1.29065273 -0.40421173 -2.38727459
H -1.86480026 -0.11677265 -1.32667036
H 0.01996196 0.80029139 1.75180228
H 0.98044772 1.64436151 0.53339155
H 1.56221456 0.08421004 1.15824865
H -0.90800167 -1.26427656 1.13671772
