11

C 0.10384915 0.08874167 -0.12029001
C 1.076901 1.1692343 0.08292159
C -0.61322075 0.032330237 -1.4169103
O 0.7525801 -0.9593823 -0.8774369
C -0.5735141 -0.36278158 1.1535667
N 1.7968491 2.0534823 0.26646343
H -0.14498909 0.7245756 -2.1313515
H 0.16508183 -0.6983224 1.8858848
H -1.1480963 0.46544394 1.5792997
H -0.15550852 -1.333363 -1.3407314
H -1.2599324 -1.1799589 0.91858363
