10

O 1.2420325 0.5102544 -1.7522744
C 0.4719241 0.08396188 -0.7374168
N -0.06399901 -1.0923688 -0.60805964
C -0.75090545 -1.0227244 0.59221464
C -0.6133746 0.20293929 1.165149
N 0.19154194 0.92281395 0.28479892
H 1.3056713 -0.24140093 -2.3584216
H -1.3038545 -1.8732115 0.9652015
H -0.9884304 0.6358394 2.0796041
H 0.509394 1.8738965 0.3692042
