10

O 0.91510284 -1.3724351 -1.5984684
C -0.8228121 0.16570514 0.9707909
N 0.5800731 0.7620809 -0.67974585
C -0.13289405 1.2138357 0.36625236
C 0.32909158 -0.54563004 -0.7195462
N -0.532685 -1.0336585 0.17772979
H -1.6660812 0.16070674 1.648693
H 1.5039701 -0.8291841 -2.1381834
H -0.046435583 -0.7791799 1.3206384
H -0.12732983 2.2577593 0.65183944
