9

N -0.17733267 -1.3280934 1.146112
C -0.37996072 -0.6981524 -0.3273689
O -0.17172417 0.93642247 -1.9680353
C 0.0113418335 0.630327 -0.80968845
C -0.84192574 -1.8848292 -0.39562094
C -0.56716114 -2.5046403 1.2245252
N 0.55500877 1.4162368 0.15448344
H 0.8695489 2.3354275 -0.1198253
H 0.7022049 1.0973014 1.0954181
