9

O -0.2155274 2.248792 0.8910557
C 0.34541827 -1.123555 -0.0023102777
C 0.92946404 -2.0676258 -0.48814967
C -0.34031367 -0.023173103 0.5284099
C -0.34443706 1.3365321 -0.026789501
H 1.435519 -2.906066 -0.9167062
H 0.3582863 1.3879226 -0.895829
H -1.3466154 1.2751057 -0.59047896
H -0.82179403 -0.12793264 1.5007981
