9

O 0.75065200 0.81080603 1.13896723
C 1.42503679 0.17346397 0.07020817
C 0.12654427 -0.32235236 0.54396429
C -1.09309406 -0.09536460 -0.20804987
C -2.11173696 0.05923261 -0.82779325
H 1.46426646 0.74066902 -0.85795858
H 2.33086471 -0.36754223 0.33855450
H 0.12178032 -1.20766044 1.17948104
H -3.01431298 0.20874798 -1.37737357
