9

O -0.95770156 -1.5819341 0.9430516
C 0.17719539 0.47358358 0.4951411
N 0.073027745 -1.1301509 -1.1073734
O 0.7596365 1.0447923 -1.6864853
C 0.4900926 1.3900783 -0.5381259
C -0.3015738 -0.8117147 0.05195143
H -1.0551383 -2.4719079 0.57607967
H 0.40646568 2.4603422 -0.27836725
H 0.4079957 0.6269116 1.5441278
