12

N -0.7514164 -0.662528 -1.223312
C 0.5297912 0.05080323 -1.7105993
C 0.66314524 -0.085332885 1.8028444
N 0.023642456 1.1748207 1.7159585
C 0.12297823 0.07268801 -0.26150265
N 0.732606 -0.7819817 0.7260566
C -0.34414008 1.2431409 0.47599754
H -1.6445762 -0.24763653 -1.4494154
H -0.86188954 2.094543 0.045371756
H -0.77890027 -1.6616142 -1.0441518
H 1.0649147 -0.41762343 2.7534657
H 1.2438449 -0.7792794 -1.8307132
