12

N -1.6335437 0.19600889 0.9839144
C -0.9302408 0.6896246 0.032246813
C -0.8712016 -0.9392278 1.3949107
N 0.54706985 -0.4988348 -1.5373656
C 0.36209178 -0.065314725 -0.16967085
N 0.23342252 -1.1669897 0.79699427
C 1.6397948 0.6569029 0.1682252
H 0.23902859 0.19250667 -2.2079496
H 1.5200037 -0.7393213 -1.6967237
H 1.3828987 1.666462 0.5636207
H -1.2623968 -1.5722376 2.1852126
H -1.2269269 1.5804209 -0.5134145
