10

N -0.6342454 0.16450776 0.73013854
C 0.16629677 0.6240752 -0.36051172
C -0.51142555 -1.1909283 1.0341293
O -0.4879647 -2.0595067 0.19587597
C 0.6230285 1.0712627 0.78228617
N 0.06899176 0.46026978 -1.6840805
H -0.53325105 -1.3964621 2.1200914
H 0.8125418 0.8343303 -2.2526007
H 0.77402437 1.9433104 1.3893964
H -0.27799654 -0.45085925 -1.9547246
