11

O 2.25485890 0.00805881 0.85941909
C 0.55649334 0.37860271 -0.90736012
N 0.01324707 -0.39756403 1.20355863
C 1.10978375 -0.00857160 0.46717080
C -1.17260397 -0.30825731 0.45249183
C -0.92346563 0.13493406 -0.78066828
H 1.03885092 -0.22860153 -1.67972810
H 0.80895502 1.42341105 -1.12176392
H 0.08031029 -0.71589464 2.15692748
H -2.11349677 -0.58547154 0.91082334
H -1.65293270 0.29935399 -1.56087085
