11

O 1.2587304 -0.65561986 -2.105379
C 0.6255367 -0.34770235 -1.1161894
N 1.1411946 0.034548692 0.09971401
C 0.12849535 0.33836338 1.0809741
C -1.139664 0.09421414 0.30540505
C -0.86134267 -0.2936144 -0.9360864
H 2.1328483 0.08366746 0.26196295
H 0.19061911 1.3757918 1.4345857
H 0.19334732 -0.31681055 1.959645
H -2.120583 0.23004869 0.7484923
H -1.5491819 -0.54288703 -1.7331244
