10

O 0.82280636 0.93261445 -1.7080864
C -0.019328218 0.813072 -0.6012867
C 0.20860071 -0.49013004 0.12172653
O 1.0262095 -1.3027942 -0.2553966
C -0.6174145 -0.7869794 1.3623588
O -1.4416794 -0.019278478 1.7840863
H 1.3467358 0.12168185 -1.7523044
H 0.13911726 1.6358639 0.111715645
H -1.0798839 0.8602302 -0.89453566
H -0.38516364 -1.7642804 1.8317221
