17

C -2.07191255 -0.98568598 0.20971841
N 0.18318596 0.08062237 1.23260683
C 0.10238935 0.00376642 -0.14233162
O -1.03944246 -0.53043996 -0.64947522
N 1.05314213 0.37680827 -0.89904982
C 1.31222263 0.77225000 1.81631748
C 0.86553029 0.19132788 -2.32053525
H -1.71077179 -1.75684037 0.90090208
H -0.67971096 0.16555512 1.74340531
H -2.52271721 -0.16085023 0.77768575
H -2.82737254 -1.41034116 -0.45068074
H 2.23359702 0.33389376 1.42975094
H 1.28148135 0.63800516 2.90089210
H 1.32419048 1.84218590 1.57861639
H -0.03686990 0.69022873 -2.69793668
H 1.73224660 0.61976228 -2.83204395
H 0.80081264 -0.87024801 -2.59784189
