17

C 0.7127858 1.5430241 1.6517628
N -0.07273473 0.42683133 1.1712819
C 1.1964984 -0.12599272 -2.173281
O -0.73011273 -0.9565265 -0.5793253
N 1.0663038 0.4446236 -0.8512869
C -1.7492565 -1.4770545 0.2584418
C 0.122212015 -0.00039451197 -0.12577806
H 1.4599932 -1.1926224 -2.1432421
H -1.0067161 0.37151566 1.5418743
H 1.7707496 1.3193991 1.5060744
H 0.49139005 2.477233 1.1229476
H -2.4938545 -0.7124616 0.5175504
H 2.0016754 0.40437594 -2.6898015
H 0.5197092 1.6719129 2.7201157
H -2.235304 -2.2538993 -0.3310061
H 0.28077814 -0.025368677 -2.7707684
H -1.3341166 -1.9145954 1.1744404
