11

N 1.3460416 0.5665123 1.8402076
C 0.6396682 0.2641097 0.8355447
C -0.7686986 -0.17877388 0.85467046
C -1.1571159 -0.39685765 -0.3981834
C -0.011630311 -0.10698588 -1.325176
O 1.0581173 0.29466587 -0.46722803
H 2.2824097 0.84611595 1.5534459
H -1.3323334 -0.28472683 1.7717514
H -2.1298988 -0.72552997 -0.74041736
H -0.23056084 0.70658153 -2.024822
H 0.30400106 -0.9851112 -1.8997929
