11

N -1.1551272 -1.9018313 0.20825647
C 1.2216376 0.680509 0.20667507
C 0.20169698 1.3202147 -0.6951552
C -0.8233125 0.36800972 -0.67646873
C -0.44951543 -0.8626309 0.095640466
O 0.7687675 -0.6351419 0.6293344
H -0.9422349 1.4198813 -0.004671155
H 1.4322337 1.2766541 1.0987945
H 2.15322 0.55337435 -0.3546832
H -0.6741583 -2.6105611 0.7618933
H -1.7332075 0.39152175 -1.2696158
