11

N 2.07423122 0.48585555 0.45543555
C 0.86335175 0.21516075 0.23672387
C -1.31483997 -0.37800089 0.51875769
C -1.15841621 -0.45993050 -0.94580573
C 0.22315454 0.04766115 -1.12637194
O -0.09921434 0.04209265 1.17781190
H 2.26512210 0.54121183 1.45419547
H -2.12311331 0.32670361 0.75972628
H -1.61672993 -1.35946564 0.91115951
H 0.05690370 1.03975181 -1.59031183
H 0.82955046 -0.50104039 -1.85132039
