9

N 0.6749312 0.18777695 -2.509349
C 0.5355555 -0.64886034 -0.046524487
O -1.261024 1.086655 0.20417204
C 0.5954662 -0.18278438 -1.4192181
O 0.60740644 0.34643078 0.927564
C -0.29741415 1.3189248 1.0849968
N 0.5457777 -1.8749862 0.21739939
H -1.9179282 1.7895378 0.31447044
H 0.5172295 -2.0226943 1.226489
