9

N -0.47898629 -1.87462055 0.24976158
C -0.10454325 -0.69661044 0.45937835
O -0.97402457 0.38964890 0.50451859
C -0.88213045 1.45490012 -0.30311782
O 0.11121985 1.21613151 -1.14623401
C 1.27180494 -0.39933331 0.81644327
N 2.36039663 -0.16737466 1.12263713
H -1.47639530 -1.90199999 0.03401723
H 0.17265834 1.97925860 -1.73740414
