12

O 0.03232811 0.54385052 -1.65932853
C 0.04349355 1.36975163 -0.13531519
C 0.27424098 0.13811952 0.72697859
O 1.37202579 -0.59634758 0.18216665
C -0.89845857 -0.81652488 0.81927347
O -0.81792434 -1.97475055 0.47018361
H -1.02752817 1.61831908 -0.07131991
H 0.49305163 1.21151215 -2.18404679
H 0.73958766 -0.10314626 -1.37887636
H 1.14630540 -1.53770150 0.30689699
H 0.48893562 0.52538688 1.73584950
H -1.84605773 -0.37846889 1.18753763
