12

O 0.9792748 -0.54461116 1.0078142
C 0.39451677 1.2213385 -0.49910936
C -1.3231388 -0.42044798 0.4665587
O 0.88979477 -0.10512438 -1.4991343
C -0.058347367 0.3837615 0.6870995
O -1.347115 -1.6282364 0.5690695
H 1.6690216 0.30341724 -1.8982167
H -2.21541 0.16140023 0.16529392
H -0.24090165 1.105013 1.4997252
H 1.2375209 -0.6329411 -0.72584885
H 0.52407867 -1.3641355 1.2795326
H -0.5092949 1.520566 -1.0527844
