12

O -0.6629124 1.4906821 -0.8150956
C 0.18675631 0.41699275 -1.1332972
C 0.48126432 -0.401596 0.121141374
O 1.0396991 0.4502858 1.0866086
C -0.7912882 -1.0152904 0.66874367
O -1.1312839 -0.82623476 1.8129529
H -0.26100394 1.918844 -0.04555328
H 1.1404232 0.7562353 -1.5615734
H -0.3248208 -0.19644769 -1.8836778
H 1.1671262 -1.227508 -0.13290527
H 0.53016305 0.29381853 1.8996125
H -1.374123 -1.6597815 -0.016956845
