9

O 1.7457496 0.5385718 -1.6422892
C 0.88893217 0.3542474 -0.82001704
N 0.26620612 -0.8135091 -0.44289902
C -0.6719728 -0.55739814 0.557627
C -0.61769754 0.76027787 0.7831582
O 0.32243225 1.3359843 -0.040740952
H 0.4903577 -1.7017977 -0.8555921
H -1.2766435 -1.3294274 1.0042737
H -1.147364 1.4130509 1.4564793
