9

O -0.13046525 0.19802547 -1.4808445
C 1.5028981 -0.338306 -0.5370571
N -0.3755201 0.18351299 0.7540819
C -1.016082 0.3529461 -0.46452528
C 0.9298073 -0.23902316 0.6701523
O -2.1699505 0.648222 -0.6148105
H 0.669544 -0.6180004 -1.5071335
H 1.480889 -0.4903996 1.5709962
H -0.89112073 0.30302247 1.6091405
