11

N -1.8763783 -1.6295173 -0.61660916
C -0.72615767 -1.2160538 -0.28157648
O 1.7397984 -0.06170265 0.44698545
N 1.0582362 1.913618 0.41875607
C 0.69987017 0.6699837 0.2281894
N -0.5039445 0.14950068 -0.1216154
H -1.8678815 -2.6445353 -0.68573296
H 0.16820246 -1.8093349 -0.08852124
H 2.1352167 1.1442741 0.6383026
H -1.2934475 0.7573463 -0.2851339
H 0.46648583 2.7264209 0.3469556
