11

N 0.20321563 1.3313181 -2.0867784
C -0.18691428 0.96833533 -0.9373562
O -0.8826324 0.037181508 1.5167911
N 0.34557495 -0.18366316 -0.37011385
C 0.03380107 -0.71262 0.8661845
N 0.49140617 -1.761201 1.4169775
H -1.0173607 -0.42832294 2.3570144
H 1.03107 -0.6655997 -0.9327031
H -0.92312753 1.464762 -0.30153912
H -0.2724946 2.1864653 -2.3635523
H 1.1774616 -2.236655 0.8350752
