13

C 0.40939206 0.38068584 1.3660562
C 0.20338486 0.30815098 -1.1872905
N -1.3441747 -1.0024769 0.29799545
O -0.30500215 -1.9462764 -0.3501387
C -0.23639986 -0.2515943 0.15965764
O -0.26826212 1.6403829 -1.2654713
H 0.07622438 -2.3954256 0.4193722
H -0.18710816 -0.32489106 -1.9880637
H -1.2333845 1.5971797 -1.2396644
H -0.31171417 1.1121893 1.7509701
H 1.3500621 0.8903706 1.1459532
H 1.295606 0.3590891 -1.2604302
H 0.5513762 -0.36738387 2.1510544
