13

C 0.30029735 0.66206 -1.1993307
C 0.09490108 0.15964042 1.2981946
N -1.9180304 -0.0068502007 -0.17246003
O 1.4543339 -0.21469605 1.3406858
C -0.5341865 0.07595584 -0.08396885
O -0.9227603 -1.3330768 -0.32468182
H 0.267859 1.7524544 -1.0974362
H 1.4953628 -1.1731442 1.2470748
H -0.13277988 0.4136436 -2.1732035
H 1.3428957 0.3346318 -1.1415919
H 0.05414656 1.2110488 1.5998433
H -0.9674434 -1.4673716 -1.2862219
H -0.53459597 -0.414296 1.9930955
