11

C -1.3311268 0.4460917 -1.2324681
C -0.60270774 0.7807529 -2.373845
C 0.60266185 0.027624791 1.5194436
O -0.582681 1.2723378 -3.4308805
C 0.115301535 -0.679626 0.2618109
N -1.17563 -0.12410114 -0.15778837
H 0.84543085 -0.59180266 -0.55618536
H -0.056167584 -1.7402769 0.46892968
H -0.14194162 -0.052393816 2.316661
H 0.7890585 1.0882065 1.3209395
H 1.537802 -0.42681304 1.8633816
