11

C -0.51054746 -0.32719459 -0.41954249
C 0.96428851 1.51955776 -0.50096477
C 2.26310013 1.03285422 -0.64773566
O 3.40173198 1.25790755 -0.75841240
C -1.15806745 -0.72002157 0.90173287
N -0.18599666 1.10312186 -0.41343865
H 0.39749417 -0.91731408 -0.61225736
H -1.21324787 -0.48217887 -1.24384353
H -1.45138446 -1.77475368 0.87345754
H -2.04792680 -0.11180877 1.08779851
H -0.45944360 -0.58016982 1.73320587
