11

C -1.10603880 -0.11083488 -0.06679485
C 1.60065160 -0.59056572 -0.46818392
O -0.92709888 -1.42495552 0.37788009
C -0.02865183 0.84785880 0.41540498
O 1.26451060 0.63574306 -0.23058214
H -2.05593005 0.24111287 0.34539714
H -1.17214267 -0.04060152 -1.16497851
H -0.04137378 -1.67997979 0.06760651
H 2.60448814 -0.49212263 -0.94115744
H 0.13669559 0.72881129 1.48790476
H -0.27510986 1.88553425 0.17750321
