11

C -0.40792647 0.78069204 0.34111974
C -0.73428255 -0.6997941 0.45954883
O 0.4188989 1.0988036 -0.8206575
C 1.3395623 0.24427232 -1.1295811
O 0.3604356 -1.4872969 0.83116674
H -1.484797 -0.8003312 1.2486516
H -1.3083593 1.382736 0.19664499
H 1.8271859 0.70588684 -2.0185232
H 0.14500651 1.1215465 1.2185314
H 1.0397117 -1.3125614 0.15746984
H -1.1954355 -1.0339537 -0.48437124
