11

C -0.83902824 -0.14231908 -0.71182245
C 0.40375608 -0.9268421 -0.29241234
O 0.65831244 -0.4285147 1.0094107
C 0.35098955 0.9353041 0.92080176
O -0.73454034 1.0670342 0.026676364
H -1.7629008 -0.6630896 -0.43010315
H -0.86561906 0.07523929 -1.7850223
H 0.2528764 -2.0055575 -0.22736336
H 1.2520748 -0.7135671 -0.9607144
H 0.06948294 1.2985227 1.912896
H 1.2145963 1.50379 0.537653
