10

N -0.8254034 0.87443477 1.3532827
C -0.17334267 0.17658769 0.34998298
C 0.3504954 -1.0664097 0.21387424
N 0.99008554 -1.1463803 -1.0249029
C 0.8128325 0.008161201 -1.5516412
O 0.11241829 0.88158244 -0.77475655
H -1.5053561 1.5352355 1.0024018
H -1.2337205 0.26823783 2.049961
H 0.33196896 -1.9033136 0.8962517
H 1.1400218 0.37186405 -2.5144536
