11

C 1.1544665 1.1688306 1.2583045
N -0.23664431 -0.3378142 -0.2068668
C -0.56853604 -1.3413733 -1.2031245
C -0.19363862 1.2667009 1.4092025
N -1.3478707 1.069087 1.2452055
H 0.17474441 -1.3449261 -2.0150611
H -0.5985472 -2.3301873 -0.742113
H -0.2393135 0.5440192 -0.7074259
H -1.5445576 -1.1281967 -1.6643708
H 1.7050705 0.4936961 1.9043783
H 1.6948266 1.9401637 0.72187144
