11

C 1.3805258 0.006871968 0.020964565
N 0.24088933 -0.6261318 -0.6312629
C -0.9967875 -0.5006754 0.11146294
C -1.4299626 0.9017946 0.33907315
N -1.7146783 2.0141814 0.47104722
H 1.2487154 1.0835778 0.2074236
H 2.2663276 -0.13458729 -0.6052143
H 1.5661874 -0.4886694 0.980181
H 0.11757163 -0.24032536 -1.5614637
H -1.7966672 -1.0265191 -0.4192876
H -0.8821213 -0.9895171 1.0870762
