10

O 0.82363653 0.93703055 -1.7060428
C -0.018127894 0.81481946 -0.60449123
C 0.20636271 -0.49211618 0.12124681
O 1.0202961 -1.3036585 -0.26136568
C -0.61643124 -0.7877834 1.3662844
O -1.4397639 -0.01995593 1.78841
H 1.349504 0.12484417 -1.7516304
H 0.13712469 1.6337512 0.113788925
H -1.0778382 0.8586554 -0.89973086
H -0.38476264 -1.765587 1.8335305
