10

O -0.5200485 1.3527228 -0.14716785
C 0.8001305 -0.6837974 0.20533852
C -1.4345148 -0.62182 -0.20686041
O -0.36431676 -1.3123399 -0.39426187
C 0.73144436 0.845686 0.09842285
O 1.6629629 -1.380111 0.6206392
H -1.2611907 0.4667725 0.35786772
H 1.1830982 1.1883882 1.0441413
H 1.4433193 1.0903518 -0.7070845
H -2.2408848 -0.94585294 -0.871035
