10

O -0.5706838 -1.0463694 0.11853623
C -0.88940537 0.12676957 -0.59447914
C 0.7364673 -0.88681495 0.5963205
O 0.9726061 0.5115959 0.71121645
C 0.056928996 1.1728541 -0.035649937
O 0.053910553 2.3564253 -0.19409253
H -1.9328152 0.39691526 -0.41243145
H 0.8196305 -1.3457035 1.5825286
H -0.72716355 0.02170641 -1.6766894
H 1.4805244 -1.307379 -0.09525928
