10

O 0.2962572 -2.2250667 -0.48258185
C 0.104189865 1.2289752 -0.3549019
C 0.045827992 -0.931635 -0.22884592
N 0.49104598 0.006442901 -1.0700567
C -0.58516306 0.8175182 0.783338
N -0.6177847 -0.5238501 0.8526232
H 0.13261744 2.1781378 -0.8748577
H 1.2776225 0.73640573 -0.40496483
H -0.10190905 -2.7281022 0.23887143
H -1.0427041 1.4411745 1.5413764
