12

O -0.08562642 0.56133294 1.4230626
C -0.7252146 -1.1772356 -0.054527275
C -0.015840838 0.114802055 0.29201454
O -1.5109342 -1.6402359 0.9999641
C 0.77710354 0.8494349 -0.770568
O 1.4656944 1.9388841 -0.2399492
H 0.049158886 -1.9122204 -0.32968566
H 1.4779388 0.14704627 -1.2462205
H -1.3375195 -1.0465447 1.7464508
H 1.1809446 2.0166638 0.68366146
H -1.3413672 -1.0165718 -0.9523009
H 0.06566254 1.1646444 -1.5519018
