12

O 0.34155434 -1.4315025 0.4555599
C -0.09564001 -0.360843 -0.10356638
C -0.9972506 0.58352983 0.6682923
O 1.7461394 -0.7256297 -1.37235
C 0.8114578 0.11895098 -1.1279774
O -0.30666226 0.9845204 1.8266159
H -1.9312024 0.05488511 0.9003847
H 1.5442283 -1.3953462 -0.58114046
H 0.7066086 1.0292745 -1.7111917
H -0.62569976 -0.50814706 -1.2502605
H -1.2470064 1.481755 0.09053974
H 0.05347302 0.1685524 2.2050936
