10

O -0.022968277 1.8958126 0.709109
C -0.14950171 -0.06633675 -0.6612357
C 0.11099311 -1.1110574 0.36404887
O 1.1801175 -0.07785459 -0.9536752
C -0.6891232 1.2424957 -0.0530393
O 0.96620095 -0.8279133 1.2732314
H -0.27994838 -2.1264243 0.3367587
H -1.7155162 1.5420791 -0.35108107
H 1.4370525 -0.05031296 0.7824788
H -0.8373061 -0.4204884 -1.4465957
