10

O 0.48015103 -1.2913511 0.46029636
C -0.037735824 -0.49484327 -0.6162209
C 1.1251863 -0.072611056 0.22195359
O 1.0532147 0.90401846 1.1523801
C -1.3359632 0.16838066 -0.3575333
O -1.6308388 0.6361956 0.726785
H -2.0115156 0.26774377 -1.2274445
H 0.104336515 -0.91508543 -1.6115814
H 0.12517849 0.9532926 1.4493449
H 2.1279867 -0.15574037 -0.19797981
