11

N 1.0325061 -0.01640018 -1.5519167
C 0.27948254 -0.026383614 -0.37357354
C -0.3774319 0.9685382 0.3196442
C -0.874188 0.31672573 1.4709247
N -0.5707387 -0.9664401 1.4958482
N 0.1367772 -1.1566185 0.35929513
H 1.0278163 0.89771867 -1.984572
H 0.7322645 -0.7064002 -2.230952
H -0.48380348 2.0045514 0.033091687
H -1.4535198 0.74292946 2.2793822
H 0.5508352 -2.0582209 0.1828284
