10

O 2.3628542 -0.39561784 0.27671823
C 1.173148 -0.1974584 0.13705906
N 0.3313763 0.56971806 0.9250086
C -0.97373646 0.55178535 0.435521
C -0.976148 -0.22401576 -0.66303724
N 0.32582015 -0.68166125 -0.84845114
H 0.66156656 1.061098 1.7372667
H -1.7750043 1.0907141 0.9131456
H -1.7810498 -0.4938401 -1.3276834
H 0.6511735 -1.280722 -1.5855473
