10

O 1.3943701 1.6993233 0.7252728
C -0.936753 -0.8031477 0.020065181
N 0.06691376 -0.8695743 -0.8997328
C 0.49052864 0.8384915 0.41559312
C -0.705124 0.2281288 0.9019704
N 0.8710017 0.2270386 -0.7094866
H 1.8543212 0.97708416 -0.40987524
H -1.2722317 0.4819301 1.7829213
H -1.7398305 -1.5263444 -0.0007246711
H -0.023196215 -1.2529302 -1.8260036
