9

N -0.10539599 1.2708479 0.49606737
C 0.31779584 -0.57933176 -0.70032567
C 0.24997607 0.81682533 -0.7136744
N 0.0007121212 -0.9970557 0.65543944
C -0.27116838 0.1768792 1.2488582
H -0.78270364 -1.1057092 -0.32352567
H 0.7708542 -1.2819942 -1.3881536
H 0.4407882 1.4810333 -1.5478032
H -0.62085843 0.21850495 2.2731175
