10

O 0.9570152 2.0888882 -1.1661314
C 0.6730059 1.1137004 -0.54912436
O 1.1311222 0.7548565 0.7059355
C 0.4998131 -0.53911257 0.5675308
C -0.966221 -0.3681211 0.5081924
C -0.12172184 -0.14757861 -0.7420343
H 1.076679 -1.4082662 0.848898
H -1.5555756 -1.2786484 0.47830522
H -1.4300414 0.47360572 1.0160358
H -0.26407555 -0.6893242 -1.6676081
