10

O -0.17518666 1.56728338 -1.43352964
C 0.38141578 0.49952752 -1.37333245
O 1.37263804 0.18521793 1.94102870
C 0.51447001 -0.04942170 1.14515005
C -0.89402415 -0.15932299 0.80732000
C 0.20513309 -0.47818830 -0.25315347
H 0.40958261 -1.51884218 -0.49860529
H -1.47667838 -0.98559732 1.20596996
H -1.43584666 0.76527967 0.61464724
H 1.09849633 0.17406372 -2.15549553
