10

O -1.1739885 0.80236596 -1.5874617
C 0.12674089 0.3208157 1.2080996
O 0.25131828 1.1088506 2.0960255
C -0.46340373 -0.89587206 0.6775683
C 0.5481918 -0.06652209 -0.1728897
C 0.0013282745 0.6904223 -1.3432658
H -1.489899 -0.8388069 0.31891033
H 1.5657226 -0.43696433 -0.2842913
H -0.14010175 -1.8592175 1.063027
H 0.7740913 1.1749285 -1.9757224
