10

O 0.6728939 2.1964796 -0.7308381
C 0.33483037 1.0891724 -0.362557
N -0.89534354 0.68710065 0.13378166
C 0.33418924 -1.1432873 0.15518934
C -0.8902939 -0.6705128 0.44776893
N 1.0830054 -0.07577453 -0.3366866
H 2.038417 -0.1013124 -0.64923525
H -1.7556992 -1.171977 0.84946406
H 0.74043876 -2.1376998 0.2517456
H -1.6624384 1.3278115 0.24136727
