10

N -1.2263812 -0.7073449 -0.29471833
C -0.6285707 -0.006632153 0.6965631
O -1.1202465 0.20444271 1.7846434
C 0.7655696 0.55632174 0.381304
C 1.3041699 0.1932486 -0.9277259
N 1.6778976 -0.12122499 -1.9742311
H -2.141342 -1.0939518 -0.117436446
H -0.78340685 -0.88307947 -1.1823313
H 0.7078979 1.6452905 0.46518552
H 1.4444125 0.2129299 1.168747
