12

N -1.3366754 -0.15664919 1.3638765
C 0.849842 0.32276863 0.44757366
C -0.30283687 -0.76463854 0.6824614
N 0.024326017 1.5143979 0.58204204
C -1.0994341 1.1287538 1.1891727
N 0.50643533 -0.66305184 -1.865262
C 0.21640658 -0.2516373 -0.65660936
H -0.1710949 -1.1804205 -2.4114456
H 1.3465797 -0.35681668 -2.3416734
H 1.9131374 0.35701904 0.68970966
H -1.8150415 1.8829726 1.512309
H -0.13164404 -1.8326981 0.8078459
