12

N 0.85790265 -1.7389908 0.5646066
C 0.26798484 -0.5465926 0.1682028
C 0.9285012 0.3942797 -0.6257268
N 0.34621495 1.5091019 -1.0615177
C -0.9190226 1.6984088 -0.6978433
N -1.6495919 0.8824274 0.05972103
C -1.0548711 -0.22619376 0.4852314
H 1.8653893 -1.7392733 0.6016737
H 0.44541124 -2.1779134 1.3757379
H 1.9657987 0.23672983 -0.9217435
H -1.4022839 2.6044872 -1.0524082
H -1.6514333 -0.8964711 1.1040663
