11

N -0.38442096 0.38436511 1.56398679
C -0.06008633 0.05086086 0.16128078
C 1.11498743 -0.71532835 -1.34996585
N 0.02991840 -0.26650170 -1.99302054
C -0.75673146 0.24270412 -1.00778480
N 1.12613962 -0.55185260 -0.01914786
H -0.53615219 1.38264374 1.71273782
H 0.44731060 0.09026772 2.08437888
H -1.19789860 -0.12050188 1.92108659
H 1.94034664 -1.18550389 -1.87378660
H -1.72341318 0.68884684 -1.19976527
