11

N -1.3420155 0.7191379 -1.0314984
C 0.7888567 1.0068197 0.22573778
C 0.84485084 -1.2470934 0.8595659
C 1.5001801 -0.055645104 0.9591926
C -0.21367663 0.23711832 -0.21287428
O -0.2822567 -1.1063519 0.103400625
H -2.2563064 0.61827844 -0.58396703
H 2.4238274 0.06615269 1.515421
H -1.0968244 1.7129288 -1.1163627
H 1.0214723 -2.2429073 1.2407198
H -1.3881077 0.29156178 -1.9593352
