11

N 0.56198263 -1.4117614 -1.3632352
C 0.17602739 -0.43926018 -0.45090082
C -1.0223398 0.103417 -0.10648018
C -0.7133511 1.1309035 0.8553504
C 0.6283143 1.1206167 1.0115469
O 1.1902133 0.15750076 0.21205372
H 1.4335029 -1.8576841 -1.1090292
H -0.16191338 -2.0960286 -1.5366741
H -1.9955858 -0.17500024 -0.482453
H -1.4161586 1.7797976 1.355397
H 1.3193077 1.6874992 1.6144242
