11

N -1.65932937 -0.34779225 -0.71261537
C 1.67505723 -0.29632411 0.33799929
C -0.36605295 0.02842119 -0.11133633
C -0.15981727 1.13233013 0.61581272
C 1.26220435 0.87305415 0.90460138
O 0.64560994 -0.88563293 -0.33647747
H 2.61059263 -0.83692776 0.31270143
H -1.64109805 -0.38680906 -1.73436498
H -2.04228259 -1.22948664 -0.36283451
H -2.24231235 0.43918412 -0.40319653
H 1.91742797 1.50998341 1.48971008
