11

C -0.89627838 1.36327463 0.56626750
C -0.28208107 0.14831992 -0.04596192
C 1.65484934 -1.19555631 0.01998792
O 0.92196353 -0.20569516 0.38075625
C -0.86104288 -0.65168205 -1.04092585
N -1.29971709 -1.35137152 -1.86758770
H -1.84616411 1.13028907 1.06235429
H -0.20829340 1.76705835 1.31414027
H -1.09058435 2.14231016 -0.18060253
H 1.30068033 -1.88523231 -0.73643522
H 2.60666825 -1.26171509 0.52800722
