11

N 0.99216634 1.3426616 2.197015
C -0.39442524 -0.95694345 -0.061672
C -0.54950064 0.5557324 0.20607193
C 0.7802804 0.06843817 -1.4417474
C 0.31757447 1.0038275 1.3209133
O -0.14863488 1.0614204 -1.0425116
H -1.3301401 -1.4202937 -0.38859257
H 1.6055851 0.06829985 -0.69851446
H 0.13412231 -1.5495974 0.68202347
H -1.574249 0.8713546 0.42992666
H 0.1672212 -1.0449002 -1.2029127
