11

N 1.6177461 -1.5997832 0.643525
C 0.7571434 -0.73406047 0.30551916
C 0.8568353 0.6706577 0.7396491
N 0.021729466 1.5878927 0.43173814
C -1.0555751 1.2039354 -0.37731642
C -1.2034866 -0.0497192 -0.8053921
O -0.3255941 -1.0410733 -0.48702487
H 1.394234 -2.5142004 0.25579786
H 1.7130064 0.91061085 1.3658435
H -1.7669787 1.9763412 -0.64003414
H -2.0090604 -0.41060117 -1.4323053
