11

N -2.023029 0.84231424 0.9657361
C 1.4580032 -0.8115218 -0.18627232
C 1.0604097 -1.0267079 1.1342202
N 0.70728546 -0.035047427 -1.0753583
C -0.41641787 0.52674234 -0.741953
C -0.9156827 0.329301 0.6081212
O -0.12368981 -0.42461655 1.4277649
H 1.0631418 0.09479677 -2.0178478
H -0.965127 1.1233696 -1.4593409
H 2.365083 -1.2307998 -0.5963437
H -2.2099764 0.61216956 1.9412742
