10

O -0.13235381 1.8943475 1.4525626
C 0.119870536 0.859441 0.83865917
N -0.066096224 0.7541308 -0.63613415
C -0.20546722 -1.2799343 0.18041609
C -0.28765875 -0.4960333 -0.98533666
N 0.0051766406 -0.53438437 1.2594749
H -0.18993944 -2.3613713 0.22768225
H -0.09817068 1.5755903 -1.2184781
H -0.40126678 -0.81924933 -2.0130012
H 1.2559057 0.40746298 0.89415514
