10

O 1.8130797 -1.0891458 -1.3647622
C 0.6218772 -0.93356043 -1.3025662
N 0.035780054 -0.6028539 1.30869
C -0.3573725 0.5674347 1.0162021
C -0.43495354 0.98680836 -0.41378096
N -0.01202774 0.31692123 -1.4001237
H 0.026984839 -0.7539275 2.3182929
H -0.90717 1.9523779 -0.6148958
H -0.11134342 -1.7630537 -1.2961603
H -0.67485464 1.318999 1.7491044
