10

C -1.26834898 0.80834060 -0.58718527
C -0.03603843 0.78575156 -1.04485330
N -1.59226143 -0.42657824 0.11485429
N -0.70839703 -0.93429323 0.81696745
C 0.70610000 -0.44678370 0.73685576
C 0.99426834 0.06206845 -0.66530764
H -2.03121061 1.56920553 -0.56713474
H 1.75355882 -0.38414476 -1.30260649
H 1.33665354 -1.31456478 0.95570273
H 0.84567571 0.28099846 1.54270720
