12

O -0.79009549 1.08289212 1.32434919
C -0.46501347 -0.26923760 1.16989410
C 0.76409801 -0.53452976 0.30182208
O -0.33609596 1.37779071 -1.38725630
C -0.00039969 0.29605854 -1.80947656
O 0.48536383 -0.72065855 -1.10509747
H -1.30028421 -0.86905421 0.77005172
H 1.23277580 -1.48334990 0.57350586
H -0.23780931 -0.65296206 2.17161882
H 1.48065810 0.28339724 0.42208080
H -0.79039234 1.47929145 0.43608390
H -0.04280556 0.01036189 -2.86757629
