12

O 0.6328142 1.7879604 -0.5818002
C 0.27769235 -0.9307491 -0.1313679
C 0.28652453 1.0507977 -1.4749861
O 0.030015098 -0.24981086 -1.3830621
C -0.60488605 -0.47821882 1.0309211
O -0.07321392 0.5657505 1.7959324
H 0.14804092 1.3701411 -2.5151005
H 0.074341305 -1.9727769 -0.38935435
H 0.21629536 1.25578 1.1744894
H -1.6065972 -0.24944927 0.62896293
H -0.71171325 -1.3368844 1.7044194
H 1.3306866 -0.8125405 0.14094616
