12

O -1.2618655 -0.66224885 1.2347611
C 0.12693422 -0.48637024 1.1857831
C 0.5835538 0.7030363 0.3442184
O 0.8571314 0.4033433 -1.0482763
C -0.14617707 0.026102869 -1.8262595
O -1.2889488 -0.18487625 -1.4850856
H -1.5830015 -0.6309167 0.31713715
H 0.66135633 -1.3841438 0.8320033
H 0.45492533 -0.2979254 2.2149405
H 1.5502006 1.0739205 0.692173
H -0.16280848 1.5013071 0.3995154
H 0.2086994 -0.061228942 -2.8609107
