12

O -0.7133187 -0.9043549 0.80332804
C -1.1490024 0.34298372 0.28641957
C -0.04317571 0.7981848 -0.7094066
O 1.5962423 -0.6064189 0.784011
C 0.56173754 -1.1779044 0.29270107
O 0.98077726 1.4017907 -0.22361475
H 0.34447506 -0.516963 -0.88695204
H 1.4732225 0.5158575 0.48402962
H 0.6610913 -2.230842 0.019286651
H -0.35474986 1.0931985 -1.7210759
H -2.112893 0.19840924 -0.21189402
H -1.2444061 1.086059 1.0831671
