10

O 0.9549234 2.0911143 -1.1642013
C 0.67125565 1.1143811 -0.5496169
O 1.128522 0.75519973 0.7062235
C 0.5005062 -0.53639096 0.56759983
C -0.9651425 -0.367578 0.50744104
C -0.12200767 -0.14809017 -0.7422036
H 1.0788586 -1.4057096 0.8456575
H -1.5554161 -1.2796818 0.4773119
H -1.4306254 0.4729404 1.0169016
H -0.26087448 -0.6961852 -1.665114
