11

N -0.26986636 -1.41546299 1.66292699
C -0.69992698 -0.30361459 1.13361558
C 0.91914958 -1.01094219 -0.08880941
N 0.76318536 -1.86681119 0.88259864
N 0.01885984 0.00903242 0.01796866
C -0.18431425 1.12377622 -0.89045369
H 1.65537962 -1.07871996 -0.87686001
H -1.50956090 0.30546399 1.50960487
H -0.88814562 0.85438179 -1.68296931
H 0.77186681 1.40626291 -1.33508790
H -0.57662707 1.97663295 -0.33253508
