11

N -0.7345787 -0.7593587 1.5595481
C -0.19544815 -0.13326108 0.4217738
C -0.13001087 -0.6114748 -0.870022
N 0.4020196 0.39771625 -1.6168324
N 0.69114566 1.4835272 -0.90618736
C 0.33083957 1.1777344 0.3327009
H -0.22020237 -0.5304145 2.401558
H -0.7687103 -1.7655336 1.4603149
H -0.41807723 -1.558494 -1.3027753
H 0.5904472 0.3949464 -2.606552
H 0.45257562 1.9046118 1.1264727
