11

N 0.14310485 1.5403913 -0.3896884
C -1.1277822 0.26870626 0.8062142
C -0.19138286 0.4715396 -1.145526
N -0.5473832 -0.4954241 -0.2591091
N -0.74756974 1.4853297 0.75076
C 0.74973726 -1.0053958 0.2006569
H 0.33322564 0.23059374 -2.0578425
H 0.6501074 -1.8023355 0.9440704
H 1.0588502 0.759295 0.18294065
H -1.736961 -0.17458181 1.5810724
H 1.4160538 -1.2781186 -0.6135487
