10

N -1.7152716 -1.1529598 0.6935574
C -0.56454825 -0.51405245 0.86697197
O -0.006464281 -0.41685933 -0.37570798
C 1.2178535 0.28837678 -0.36116832
C 1.0032839 1.7087764 -0.68478614
N 0.8610665 2.8251944 -0.9396422
H 1.8695558 -0.15672636 -1.1172991
H 1.6776035 0.21711954 0.6282296
H -2.2815635 -1.3377559 1.5033728
H -2.0615156 -1.461113 -0.21352807
