11

N 1.1726553 -0.6607849 0.61515707
C 0.5415714 -0.8572979 -0.6096638
O -0.64307046 0.17246279 -0.581947
N 0.33322722 -2.168161 -0.39390478
C -0.25372928 0.9173974 0.39646733
N -1.0112337 1.9968115 0.5681315
H 1.1055726 -0.51492566 -1.4837416
H 0.8144187 -2.7150328 -1.1081795
H -1.7955513 2.207265 -0.039205067
H 0.5296033 -1.0135722 1.3230181
H -0.7934638 2.6358376 1.3138677
