11

N -0.7000971 0.40250877 1.9834274
C 0.020982476 -0.26346558 1.0174477
O 0.7396059 -1.2126002 1.2494435
N -0.12366137 0.2823475 -0.25311416
C 0.52586854 -0.23051482 -1.36419
N 0.40710562 0.35161808 -2.4869366
H -0.73342454 -0.0856911 2.8661466
H -1.5514576 0.8791889 1.7196461
H -0.61850804 1.1523511 -0.39303523
H 1.099742 -1.1319212 -1.1414353
H 0.9338442 -0.14382137 -3.1973996
