11

N -0.26875103 2.1857483 0.8227998
C 0.20262198 -0.9224324 -0.49371478
N 1.0584167 -1.9658768 -0.7297779
N -0.96924376 -0.7189068 -0.9843191
C -0.40226278 0.9651896 0.21306153
N -1.372444 0.53106874 -0.5124292
O 0.6457984 0.10004715 0.29135612
H 0.5978981 -2.698945 -1.2522378
H 0.12599276 2.1469705 1.7526745
H -1.1396425 2.6991248 0.7968191
H 1.5216157 -2.3219883 0.09576774
