10

N -1.22840160 -1.15847266 2.85893458
C 0.43819123 0.41970090 -1.28760538
C 1.33290357 1.18703809 -0.32767027
N -0.43271257 -0.37745187 -0.42163773
C -0.06102996 -0.07598265 0.81295716
C -0.71029513 -0.67624724 1.94951424
N 0.93385367 0.80586521 0.92825263
H -0.14375817 1.11695464 -1.89893065
H -1.16651617 -1.01928497 -0.67365098
H 1.03776498 -0.22211951 -1.94016339
