10

N 3.113563 -0.889681 0.7413493
C 2.0807512 -0.43218857 0.50757545
C -0.88237137 1.5227221 -0.19128068
N -0.30593747 -0.7035596 0.11741919
C 0.7774643 0.11355504 0.20988166
C -1.3607651 0.16113934 -0.17842379
N 0.5268572 1.3699683 -0.009594956
H -1.2506515 0.7459997 -1.2717974
H -2.3903131 -0.18000916 -0.12792128
H -0.30859748 -1.7079462 0.20279254
