11

N -0.063152954 -1.6370225 0.12411306
C 0.20535 -0.5759077 0.931468
O 0.7862676 -0.6321435 1.9961481
C -0.24722572 0.74505264 0.3608611
C 0.2543442 1.1945356 -0.94135815
O -1.0682439 0.6932993 -0.7995404
H -0.7285976 -1.5238246 -0.6245937
H 0.12566149 -2.5596921 0.48692706
H -0.5271005 1.4841539 1.1086644
H 0.33088115 2.2622664 -1.1436874
H 0.9318162 0.5492828 -1.4990025
