11

N 0.29455057 -0.7931585 1.3745844
C -0.7298969 0.4563206 -0.7037464
O -0.3444811 -1.4529575 -2.0853314
C 0.4454151 0.45988843 1.3103797
C 0.12873714 -0.5741364 -1.4105886
O -0.009611752 1.1895489 0.28063965
H -1.6034065 -0.035899866 -0.26909912
H 1.2200061 -0.41176307 -1.3127716
H 0.93711156 1.1213455 2.0284364
H 0.7151022 -1.1643937 2.2208712
H -1.0535263 1.2052057 -1.4333742
