11

N 0.08301170 -1.55021324 0.44191693
C 0.35181610 -0.63130340 1.26675500
O 0.06959722 0.65824181 1.02749767
C -0.61180097 0.90728789 -0.19688907
C 0.21683710 0.54145302 -1.41271954
O -0.26380976 0.44066234 -2.51288303
H -1.56515848 0.37441112 -0.23390355
H 0.38169903 -2.45310201 0.79752675
H 0.82685998 -0.71800771 2.24742414
H -0.79208382 1.98679960 -0.20550119
H 1.30303187 0.44377084 -1.21922453
