11

N 0.22816795 -0.04050735 2.1474597
C 0.060566332 0.04429618 0.9033053
O 0.03058215 1.1755267 0.15138176
C -0.13321978 -1.1226479 -0.041440956
C -0.07061377 0.7792847 -1.2200822
O -0.5905248 -0.5109553 -1.2315447
H -0.8832015 -1.8266795 0.3206722
H 0.82210183 -1.6448413 -0.19149643
H 0.9326322 0.8190377 -1.666339
H -0.7570421 1.4502223 -1.7373562
H 0.3605514 0.8772637 2.5654407
