11

N -0.41312668 -0.55232257 -1.4632522
C 0.19613783 -1.293535 -0.6392293
O 0.77166784 -0.8141305 0.47199774
C 0.6976961 0.5965066 0.6314719
C -0.7326756 1.0785248 0.79900783
O -1.0272982 2.2410808 0.70930874
H -0.7874721 -1.0980145 -2.2321417
H 0.34210524 -2.374644 -0.6888468
H 1.1579762 1.1187924 -0.21180151
H 1.2556515 0.8085023 1.5479183
H -1.4606618 0.28923926 1.0755669
