11

N 0.96721095 0.466404 -2.1392655
C 0.57894397 0.2439141 -0.95694727
C -0.7994649 -0.119325824 -0.64493537
C -1.1505865 -0.3419196 0.6265545
C -0.123199046 -0.20971908 1.6416991
N 1.0954441 0.105109416 1.4169675
O 1.4616938 0.33813393 0.10234414
H 1.9593656 0.70234436 -2.1661997
H -1.480448 -0.19085404 -1.4837275
H -2.1612275 -0.61424696 0.91361076
H -0.3477322 -0.3798403 2.6898992
