11

N -1.37008662 -0.13688122 -1.37222068
C 1.07723568 0.37838099 -1.47308554
C -0.26544149 0.14831148 -1.98569239
C -0.09780674 -0.07595445 0.61818910
C 1.06348695 0.24194515 -0.08809814
N -0.19979311 -0.23311529 1.94663274
O -1.25788793 -0.25344946 0.01164151
H 1.96385611 0.37333973 0.51346385
H -0.44146345 0.21557571 -3.05742133
H -1.08912745 -0.48337152 2.36003188
H 0.61702832 -0.17478113 2.52655885
