11

N -0.45415124 1.1435591 1.097641
C -0.09856757 -0.03898822 -1.0153764
O -0.7165003 -1.1785172 -0.94568187
C 1.1503248 -1.1542476 0.518186
C -0.804237 0.97165644 -0.10047965
O 1.2679591 -0.27404273 -0.3730754
H 2.0771437 -1.6666193 0.7714219
H -1.6876031 1.4027228 -0.59131414
H 0.23029444 -1.3605838 1.0520996
H 0.13968329 0.39439732 -2.001035
H -1.1043457 1.7606634 1.5876139
