10

O -1.10861030 2.10032298 -0.60169660
C -0.63239858 -2.01085361 1.24595511
C 0.20683851 -0.35032950 -0.26699471
N -0.42474417 -1.33842300 0.03263525
O 0.16404744 -2.77343218 1.71618000
C 0.83465837 0.73218671 -0.68736145
C 0.06105683 1.97189312 -0.87573192
H -1.64215184 -1.82588960 1.64940398
H 1.89612727 0.68821208 -0.89835124
H 0.64517629 2.80631304 -1.31403850
