11

C 0.50883186 -0.9638058 1.5002788
C 0.1674878 -0.12422559 0.31820518
N 0.6361145 1.0350782 -0.0083709955
C -0.032600477 1.3595613 -1.1813
C -0.87782913 0.3583712 -1.498551
O -0.76082957 -0.6074902 -0.54184186
H -0.38680634 -1.1940765 2.0850625
H 1.2139981 -0.41587314 2.1277652
H 0.96431977 -1.9109706 1.1965511
H 0.14713332 2.2900963 -1.702355
H -1.5798197 0.17333482 -2.2954438
