11

C -1.3244722 0.99365807 1.0594108
C -0.33785287 1.7640462 0.21780048
N 0.53126323 0.8047781 -0.46927252
C 0.121563055 -0.32099164 -0.09086077
C 0.57378113 -1.6967378 -0.41669896
O -0.9839688 -0.2566838 0.8222219
H -0.2511609 -2.2680984 -0.85269505
H 1.4047592 -1.65163 -1.1189153
H 0.24678606 2.4405143 0.85497576
H 0.8895908 -2.21141 0.4951628
H -0.8702888 2.402555 -0.50112915
