10

C 0.25843385 -0.62499064 -1.4348596
N 0.11399715 -0.068880275 -0.104754075
N -1.0278481 0.41122058 0.36448213
C -0.66316843 0.7856492 1.5775809
N 0.6392487 0.5440846 1.827842
N 1.1166654 -0.0020355862 0.74447966
H -0.38349026 -1.5018144 -1.5379722
H 1.3036968 -0.905881 -1.5533663
H -0.01887918 0.12609743 -2.175889
H -1.338656 1.23655 2.2924566
