9

N -1.495528 -2.064381 -0.5975246
C 0.376119 -0.58746606 0.46682575
O -0.75282365 1.3244771 -0.6673999
C -0.67464584 -1.4034419 -0.12331399
O 1.0638144 0.22146134 -0.42969564
C 0.49724585 1.2407485 -1.105289
N 0.6957108 -0.71525306 1.6738641
H -1.1699222 2.064971 -1.1268662
H 1.4600298 -0.08111586 1.9093993
