9

N 0.6451082 1.7198626 -0.70065755
C -1.2665735 -0.59979606 0.76958096
O -0.2754357 -0.8407178 1.5479611
C 0.29015425 0.520324 -0.5923724
O -1.0273638 0.12893456 -0.32837507
C 1.2106944 -0.56891525 -0.87867475
N 1.9305451 -1.4369489 -1.1298554
H -1.3752836 -1.2706578 1.8048173
H -0.13184537 2.3479147 -0.49242422
