10

O -0.78984158 0.17928177 1.75657256
C 0.12925180 -0.15237423 0.76950082
N 0.78825481 0.98378396 0.12548096
C 0.69509403 0.74637924 -1.12167657
C -0.40282009 -0.93617601 -0.41509312
N -0.03100190 -0.42126579 -1.52295215
H 0.90590255 -0.74411856 1.27164269
H -1.42077292 0.80802523 1.38005950
H 1.11653559 1.38333598 -1.89329417
H -0.99060226 -1.84687172 -0.35024072
