10

O 0.8634722 -0.39754054 2.1022258
C -0.6383562 0.021321993 0.4909547
O 1.4763572 -0.3155755 -0.19551523
C 0.6557754 -0.42540956 0.85528564
C -0.8123321 -0.20522553 -0.998012
C 0.3759335 0.56512296 -0.6222058
H -0.3106417 -0.005234073 2.0096586
H 0.6706313 1.5961039 -0.77910155
H -0.65199 -1.1948678 -1.4229343
H -1.6288494 0.36130422 -1.440356
