10

O 0.23288479 2.27486574 0.25111711
C 0.04834097 0.97696968 0.27680111
O 0.63515521 0.27658076 1.23461791
C -0.18734065 -0.82005438 0.67415360
C -0.77106204 0.08840605 -0.44168022
C 0.17598849 -1.10662822 -0.71412802
H 1.21015874 -0.94077891 -1.01038165
H -0.74944847 -1.38705437 1.40560153
H -0.29369812 2.60181479 -0.49545429
H -0.30097909 -1.96412093 -1.18064683
