9

O -1.9807914 -0.4791746 0.49082407
C -1.0521413 -1.0551465 -0.04172168
C 0.293859 -0.5235948 -0.10306214
O 0.5449014 1.4112555 -0.6970759
C 0.5410878 0.7131368 0.65258056
N 0.35746893 1.204663 1.7384009
H 1.4323934 1.7638752 -0.8023781
H 1.0213804 -0.9597506 -0.77644825
H -1.1581581 -2.0752642 -0.46111947
