9

O 1.3560468 -1.4119571 0.5828116
C -0.12563358 0.53894204 0.72954834
C 0.46790564 -0.5645611 0.048026953
O -0.84643275 0.36090082 -1.3671066
C -0.929638 1.0589635 -0.22388762
N 0.05228103 -0.6788657 -1.1829128
H -1.6061822 1.9016846 -0.24558817
H 1.5979304 -2.0679688 -0.08730449
H 0.033722784 0.8628618 1.7464129
