9

O -1.1207428 0.36186057 -1.047188
C 0.07607971 -0.091309205 -0.51261413
C 0.48783648 0.74279374 0.70222
O -0.22977057 1.6289995 1.0927317
C -0.0028390659 -1.504839 -0.06597255
N -0.054366507 -2.593788 0.31476533
H -1.4798696 0.9992593 -0.4056217
H 0.87713784 -0.028090103 -1.2632799
H 1.4465345 0.48511317 1.1849594
