10

O 0.33197333 0.98868705 -1.14339867
C 0.33755126 -0.31904577 -0.60085431
C -0.87172288 0.24906227 -1.21097607
C 0.05355817 0.42814088 1.94307581
O 0.74606111 -1.34067462 1.58985111
C 0.42399707 -0.37369664 0.87418658
H -1.66907735 0.61119744 -0.56513807
H -1.15738096 -0.09481884 -2.20277152
H 0.88692915 0.92374544 2.44698768
H 0.91811102 -1.07259706 -1.13096276
