9

N -0.43320236 -0.15704677 -1.0405023
C 0.74629533 1.2210704 0.6741549
C 0.5203851 -0.093470134 0.07508874
C -0.6051983 -0.91788745 0.5917529
N 0.9352203 2.2686887 1.126321
H -1.3840235 -0.5623683 -0.42789468
H -0.87043816 0.7695348 -1.1036679
H 1.4609114 -0.57765293 -0.1940849
H -0.3699496 -1.9508685 0.29883233
