11

C -0.21871081 0.2159723 0.011917762
C -0.32526517 -1.1430571 0.523023
O -1.1879696 0.9422735 0.45973438
C 0.8133506 0.7882755 -0.89218587
O -1.395107 -1.35154 1.1933328
H -1.7196298 0.1807548 0.94218934
H 0.34288937 0.9750787 -1.8641818
H 0.59520596 -0.5114592 1.1341727
H 0.26526043 -1.9301 0.030469466
H 1.1858184 1.7411839 -0.5085963
H 1.6441576 0.09261756 -1.0298756
