11

N 0.514538 0.5179036 0.97873455
C -1.5131772 -0.021099938 0.8563648
C 0.37214917 0.042302053 -0.28181848
N 1.4354575 0.0579316 -1.1885179
C -0.94973487 -0.33126625 -0.40228972
N -0.63039774 0.4867223 1.6933076
H 1.1504486 -0.3105063 -2.0871887
H 2.2489645 -0.44918412 -0.8631402
H -2.5357015 -0.16144806 1.1794169
H 1.3374219 0.9351986 1.3813912
H -1.4299681 -0.76655346 -1.2662598
