11

N 0.29422072 0.3039192 1.9999547
C 0.11450846 0.103840336 0.7638922
C -0.6356973 0.8452582 -0.34186414
N -0.42749095 0.08351773 -1.5747701
C 0.29295388 -0.91457456 -1.2472023
N 0.6502936 -0.9897175 0.08892001
H -0.17356955 1.1576003 2.3006015
H -1.7075369 0.9109549 -0.12002709
H -0.26081058 1.8683934 -0.45936555
H 0.6270545 -1.681981 -1.9397364
H 1.2260741 -1.6872112 0.5295969
