11

N -0.35677837 0.76063270 1.67204590
C -1.00133999 1.26900774 0.64066266
C -0.64589307 0.64908656 -0.57886053
N 1.07909925 -1.17747575 -0.96206281
C 0.29539732 -0.29164420 -0.21769295
N 0.43076439 -0.19049466 1.12652053
H 1.08367406 -0.68655585 1.71050484
H -1.71535193 2.06599148 0.79757051
H -1.02119662 0.85083349 -1.57132647
H 0.86610503 -1.10768449 -1.94915370
H 0.98551991 -2.14169722 -0.66820826
