12

C -2.068375 0.24092203 -0.14386393
N 2.4492981 -1.2825899 0.11416929
C 1.6461526 -0.30723056 0.028857203
N 0.2779959 -0.5557908 0.086084075
C -0.6639878 0.40668863 0.025424413
O -0.33774334 1.6563817 0.021267606
H -2.6324332 0.53586316 0.7398874
H -2.4448678 -0.6556686 -0.6357455
H 3.4086154 -0.9497279 0.04735851
H -0.0049295346 -1.5232124 0.15966818
H -1.5118464 1.6820606 -0.35741925
H 1.8821218 0.752304 -0.08568796
