12

N -0.4544441 -0.45223916 1.9164802
C -0.14060605 -0.13527843 0.60009515
C -0.9262538 0.723484 -0.17415905
N -0.5953124 1.0832441 -1.411457
C 0.53904134 0.5811825 -1.8928568
N 1.3651432 -0.24686769 -1.2572795
C 1.0193481 -0.5991752 -0.022564536
H -1.4324559 -0.38327113 2.1569827
H -0.031774182 -1.3009427 2.2657635
H -1.8540348 1.1343666 0.22227754
H 0.81745654 0.87288696 -2.9023566
H 1.6938922 -1.27739 0.49907464
