10

C 0.8193998 -0.0963096 0.7849961
C 0.448256 1.1358057 0.26207855
N -0.5102829 1.2610325 -0.6579147
C -1.0920545 0.12866455 -1.0473266
N -0.8233447 -1.1043404 -0.619899
C 0.13701198 -1.2043073 0.2994449
H 1.5999657 -0.18730336 1.5323746
H 0.9306576 2.055876 0.5871533
H -1.874311 0.21780698 -1.7976898
H 0.3647019 -2.2069247 0.6567827
