10

C -0.9923362 -0.6561946 0.52416956
C 0.40578678 -0.2445113 0.6603169
N -1.5914022 -0.0591044 -0.47032848
C -0.5324235 0.83431774 -0.5961001
N 0.45316517 0.50965834 -1.5153631
C 1.1593581 -0.067712605 -0.58443594
H 2.1925797 -0.38175833 -0.7310725
H 0.92914146 -0.3448764 1.610141
H -0.5290306 1.7867404 -0.065376446
H -1.4948387 -1.3765588 1.1680492
