10

C 0.6106486 -0.31599128 0.530003
C -0.7545031 -0.39958045 -0.17423476
N -0.045295153 -0.2619047 -1.4930438
C -0.95152247 0.9034643 0.5474326
N 0.19537783 0.99762136 1.1230097
C 1.0879892 -0.20725018 -0.89268
H -1.7612884 1.6310184 0.6008866
H -1.4746698 -1.2154241 -0.10226049
H 1.029942 -1.0452665 1.2247213
H 2.0633214 -0.086686894 -1.3638341
