9

N -0.119518444 -0.84745187 0.4513233
C 0.35846943 0.37738568 0.8598138
C 0.2744347 1.1777911 -0.24596064
N -0.23755828 0.48134518 -1.3116914
C -0.46236515 -0.7274391 -0.86056274
H -0.19845979 -1.6780101 1.0136728
H 0.7012029 0.5497436 1.868624
H 0.55244243 2.2183702 -0.3436719
H -0.8686479 -1.551735 -1.4315473
