11

C -0.25327975 -1.3253927 0.35988814
N -0.73285794 -0.8348479 -0.8090994
C -0.6187697 1.2690505 -0.12313688
N 1.1697844 -1.047153 0.5207421
C 1.3076932 -0.036458034 -0.22613746
N 0.038666468 0.2793567 -0.84674627
H -0.6317671 -2.2603307 0.7614813
H 2.190213 0.5761137 -0.3656642
H -0.65394604 -0.12881479 1.0469635
H -1.6962998 1.2728724 -0.25767478
H -0.11943673 2.235604 -0.060616095
