11

C 1.2356193 -0.43699336 0.55785394
N -0.5008271 1.0068904 0.10022865
C 0.7509939 0.95396245 0.81918734
N 0.44043082 -1.1083931 -0.17279649
C -1.6005266 -0.6148921 -1.1903816
N -0.62629026 -0.17293556 -0.43628207
H 0.6226798 1.1255159 1.8975501
H 1.4753032 1.6985004 0.45848265
H -2.412515 0.06390325 -1.4040645
H -1.5394436 -1.6285751 -1.5528854
H 2.154575 -0.88698345 0.92310745
