11

O 0.95139027 -0.3795628 1.4929801
C -0.34566236 0.0112696355 1.1224732
C -0.51449376 0.10832707 -0.38316357
C 0.10864137 -0.8755947 -1.2926829
O 0.5463179 0.8453705 -1.0274236
H 1.2240045 0.01920364 -1.1853592
H -1.0361847 -0.746788 1.5071572
H -0.4045532 -0.8223005 -2.2662516
H -1.4604967 0.57654333 -0.6709428
H -0.62696534 0.9804429 1.5651981
H 1.558002 0.2830888 1.1380154
