9

O 0.026447253 -0.5015717 1.6466666
C -0.7725252 -1.0769035 -1.7172223
N -0.27340606 -0.62375784 -0.6549047
N 0.66387725 2.090844 1.2843959
N 0.37121803 1.3936316 0.33916068
C -0.0051944535 -0.0126662 0.40839633
H 0.011617376 -1.5904131 -2.301334
H -0.35904953 -1.3862618 1.647812
H 0.3370153 1.7070991 -0.6529708
