9

O 1.09483649 0.04885294 1.32767886
C -0.47923987 -1.68350184 -1.28121798
N -0.02502972 -0.77994399 -0.53271552
N -0.58556253 1.31883734 0.33589616
N -0.46962559 2.23245167 1.12144798
C 0.18844975 0.08401921 0.35270734
H 0.06269454 -1.66994300 -2.24344531
H -1.26345159 1.28537534 -0.45347275
H 1.47692857 -0.83614779 1.37312123
