9

O 0.8375572 -1.7230587 -0.6217411
C 0.27424344 -0.57399756 -0.21305537
N -0.6588859 0.06658024 -0.898149
N -0.9073318 1.1215006 -0.12750019
N -0.21517637 1.2123853 0.9904344
C 0.5605617 0.13044442 0.96808314
H 0.43896848 -1.9583973 -1.4692487
H -1.589544 1.815772 -0.38681677
H 1.2596073 -0.09122912 1.7579936
