9

O -0.8370696 0.76757276 1.2551728
C 1.8913875 -1.0715412 0.17318596
N -1.9081401 -0.7689543 -1.2451522
N -1.1505989 0.14084539 -0.9773954
N 0.8655589 -0.35791963 0.15795763
C -0.27635056 0.15820664 0.20326205
H -0.31050363 0.5945418 2.0482984
H 2.7846863 -0.46535742 -0.066447034
H -1.0589699 1.0026058 -1.5488821
