17

C -1.2518079 -0.9736919 2.1583998
N 0.7149427 0.4811247 -0.6406953
C -0.33319652 -0.3376509 -0.011673967
O -1.1634457 -0.90078926 -0.69088525
N -0.2761214 -0.2835218 1.3350236
C 0.18240145 1.8949327 -1.014925
C 1.2871746 -0.17048901 -1.8464692
H 1.4841487 0.65263045 0.011874784
H -2.2024267 -1.0012784 1.6256773
H 1.9909824 0.5395179 -2.2787206
H -0.64448625 1.65627 -1.6984956
H -1.3795034 -0.42850712 3.0962338
H 1.7781694 -1.114423 -1.587176
H -0.93446094 -2.0008192 2.3729112
H 0.5488814 0.09321754 1.7713121
H 0.46208733 -0.3459656 -2.534804
H -0.26333946 2.239443 -0.06758842
