17

C -1.5309676 2.237063 0.13840483
N -0.6641354 1.1755958 -0.3416262
C -0.111485474 0.31800005 0.59338635
O -0.22584479 0.52403796 1.7946075
N 0.6037557 -0.74014497 0.081128314
C 1.0440762 -1.7874086 0.9814492
C 0.8337399 -0.93687046 -1.3370435
H -2.4667575 1.862852 0.57486016
H -1.0069063 2.80354 0.9109288
H -1.7640136 2.9075568 -0.69212115
H -0.93221635 0.77264166 -1.2255993
H 0.52495754 -2.7344172 0.7758093
H 0.8257691 -1.4704946 2.000551
H 2.1219573 -1.956913 0.8781996
H 0.99683356 0.024952486 -1.8324691
H 1.7422736 -1.5335771 -1.4657633
H 0.008964015 -1.4664136 -1.8347021
