17

C 1.475464 -0.304556 -0.7411247
N -1.2656277 0.11627428 -0.81959295
C -2.3423815 1.4864787 -1.0444666
O -1.3864992 -0.1421851 1.4520688
N 0.64447784 -0.41545022 0.4461293
C -0.69662964 -0.15664 0.45469013
C 1.2788402 -0.83064884 1.6849078
H -1.7048212 2.1203072 -1.6668571
H -2.3420289 1.847712 -0.011959819
H 1.4439217 -1.2137326 -1.3586549
H 1.178086 0.5562821 -1.3501296
H -2.347313 0.032695998 -0.9687656
H 0.5191017 -0.8513713 2.4655411
H 1.7180296 -1.8284445 1.5715789
H 2.0685446 -0.12428923 1.9633596
H 2.5105321 -0.13962358 -0.42903715
H -0.7516964 -0.15280892 -1.6476872
