11

O -1.38754264 -0.44152636 -2.54445757
C 1.16531979 -0.17618011 0.91562960
N 0.11219205 -0.98331100 -2.02913753
C -0.18082122 0.47555558 0.84195715
C -1.03016714 0.43350355 -0.19040398
C -0.72536112 -0.27306367 -1.41514645
H 1.93176575 0.58506457 1.09445402
H -0.49674438 1.03705550 1.72254073
H 1.18636021 -0.86525785 1.76636869
H -1.99365667 0.93452531 -0.16890117
H 1.41865545 -0.72636544 0.00709641
