11

O -2.2742932 -0.5380761 -1.7699009
C -1.2197069 -0.317465 -1.0074141
N -0.6388056 -0.81767386 -2.0050495
C -1.0612972 0.24211934 0.3169385
C 0.13590975 0.38013548 0.897088
C 1.4590396 -0.009038528 0.31386107
H 0.15603268 0.8166229 1.8968834
H 1.9460865 -0.732782 0.9756832
H 2.1086287 0.87073094 0.25954065
H -1.9810909 0.5499583 0.805827
H 1.3694957 -0.44453156 -0.6834569
