10

C -1.2375389 0.429241 0.19835766
C -0.35869417 1.1007462 -0.6474969
N 0.8863374 0.67573607 -0.8520537
C 0.35734904 -1.1005595 0.6471961
N -0.8845798 -0.67612004 0.8507547
C 1.237127 -0.42861837 -0.19945434
H -0.6675959 2.0019999 -1.1712039
H -2.2498884 0.7952355 0.3526221
H 2.250942 -0.7946371 -0.34948555
H 0.6665419 -2.0030234 1.1707639
