10

C -0.8846085 0.688855 0.65576565
C -0.42670956 0.66830695 -0.6842359
N 0.9075699 0.44918263 -1.289291
C 0.7593531 -0.68001497 0.8523204
N -0.06453197 0.030820025 1.5231137
C 0.5298393 -0.6536268 -0.68577176
H 0.43213493 -1.6159011 -1.2095871
H 1.6657853 -1.097746 1.2792268
H -1.8022889 1.155279 0.99659497
H -1.1165435 1.0548455 -1.4381357
