10

C 0.38553888 2.054865 1.501091
C 0.180155 1.0930957 0.80472815
C -0.05949635 -0.04240308 -0.020367574
C -1.2067138 -0.7218871 -0.37421465
N -0.8688579 -1.7426172 -1.2006894
N 0.41426355 -1.740011 -1.3810582
N 0.91468066 -0.72437596 -0.6772684
H 0.5609741 2.9077773 2.1222034
H -2.2285705 -0.5322238 -0.08496908
H 1.9080262 -0.5522195 -0.68945503
