10

C -0.88479465 2.9410694 0.109707296
C 1.1013818 -0.26577926 0.08376224
C -0.22999348 0.41419935 0.0116846915
C -0.562592 1.7151086 0.067267835
N 0.78995436 -1.6930586 -0.04654238
N -0.4379047 -1.8458302 -0.17082828
N -1.078224 -0.6243341 -0.1385641
H 1.617219 -0.08499341 1.0322009
H 1.7698729 0.044176415 -0.72488976
H -2.0849192 -0.60055816 -0.22379857
