10

O 1.5517313 -1.4312776 -2.3923209
C 1.7103373 -0.31485313 -1.6937143
C 0.51625836 -0.030405633 0.36433133
N -1.3906004 0.9862389 0.80528384
N 1.4316218 -0.4752818 -0.39451534
C -2.056276 1.5238483 1.6093056
N -0.6679499 0.54273343 -0.11403571
H 1.203188 -2.1668394 -1.8560059
H -2.9372323 1.4568418 2.2215824
H 0.6389216 -0.0910048 1.450089
