9

N 0.42760404 -1.25774992 2.26185027
C 0.44612307 -0.45713705 1.42846601
O -1.18148953 -0.85890747 -0.80262544
C 0.50161797 0.55228906 0.38338732
O 0.74758426 0.06793475 -0.89813221
C -0.09473140 -0.73608707 -1.56237591
N 0.44756389 1.77347242 0.66165667
H -1.79916908 -1.42348781 -1.28608625
H 0.50489687 2.33967332 -0.18614034
