11

C -0.41895956 0.7911348 1.5191085
C 0.06934946 -0.046092056 0.36296564
C 0.6948203 -1.6519536 -1.7861298
N 0.09788908 -0.583826 -1.8433847
C -0.37477946 0.278878 -0.9787513
O 0.82148254 -1.0045397 0.5402348
H -0.93101245 0.13845325 2.2325463
H 1.7427627 -1.8183327 -2.0163891
H -1.0442635 1.0774034 -1.2681787
H 0.44066793 1.2308745 2.0339408
H -1.097957 1.5880003 1.2040381
