11

C -0.058916487 -0.6809737 0.38368824
C -0.2737238 0.004250529 1.4398704
C -0.04495758 -1.4403582 -0.84268886
N -0.54895 1.286846 0.8922187
C 0.25141466 1.8174716 -0.051235948
O 1.0074353 1.2442607 -0.83023095
H 0.23193571 -2.4721506 -0.59373283
H 0.15020847 2.9158063 -0.069437034
H -0.3502947 -0.20421681 2.5004685
H -1.0446895 -1.457044 -1.291199
H 0.6805379 -1.013892 -1.5377212
