10

N 0.7361555 0.35073256 -0.80076295
C -0.4349818 0.91393554 -0.12525344
C 0.0026507997 -1.2026899 0.6429303
C 1.0209775 -1.1022445 -0.25504306
C -0.85831285 -0.022617461 0.7281936
H 1.589236 0.89340895 -0.6583992
H -0.79442155 1.9076118 -0.35698947
H 0.6180079 0.26034567 -1.8101413
H -1.7153281 0.08613864 1.383803
H -0.16398335 -2.0846214 1.2516625
