9

N 0.20763262 -1.1025711 0.2967118
C -0.11839677 1.1130961 0.31095555
C -0.5052124 -0.61941504 -0.8447145
N -0.71930504 0.70669854 -0.8170049
C 0.47659582 0.040755715 0.9714108
H -1.0339469 -1.3122501 -1.4905012
H -0.11054032 2.1580937 0.5979285
H 1.0966797 0.030346356 1.8572817
H 0.7064934 -1.0147542 -0.88206786
