9

N -0.02799424 -1.22117601 0.08222599
C 0.16271406 -0.21265370 1.10812452
C -0.08411657 0.89116239 -0.73907451
N 0.11307855 1.10657309 0.50954609
C -0.17240148 -0.55642631 -1.00506517
H -0.61423240 -0.30925497 1.87433755
H 1.12826419 -0.35878649 1.60550497
H -0.16949653 1.69162780 -1.46753718
H -0.33581546 -1.03106604 -1.96806221
