12

N -0.931153 2.0758293 1.7927389
C -0.8553513 1.2730587 0.96610487
C -0.76103747 0.22350551 -0.06730075
C 0.3964887 0.47492093 -1.084984
N 1.4889232 -0.4105112 -0.67886144
C 1.006157 -1.1952583 0.19568089
N -0.34605253 -1.0546273 0.5075562
H -1.7335465 0.13884336 -0.5612537
H 0.072280414 0.21274668 -2.0972846
H 0.72484106 1.5175005 -1.094879
H 1.5753891 -1.9915129 0.6708224
H -0.6369387 -1.264495 1.4516599
