12

N -0.62608091 1.19610565 0.39848868
C 0.35830494 0.53035819 1.12878565
C -0.58383189 0.96192972 -0.88879336
C 0.80458774 -0.54772930 0.16122101
N 0.48894485 0.10928183 -1.11794838
C 0.04219144 -1.84499061 0.30663923
N -0.55467823 -2.82872594 0.42253279
H -1.07691151 1.54796074 -1.65054773
H 0.41969811 -0.48961670 -1.93095821
H -1.21578696 1.90537751 0.80758031
H 1.87044802 -0.79349764 0.22489914
H 0.07311439 0.25354684 2.13810055
