9

O -1.3186373 -1.1633719 0.57076293
C -0.6939678 -0.019010711 0.12528647
N 0.58018273 0.27619815 0.76143426
N -0.41392833 -0.1387934 -1.3186451
N 0.77248335 0.16370077 -1.5175011
C 1.3736187 0.4135645 -0.213181
H -1.4030024 -1.0973495 1.5298198
H -1.3206936 0.8856117 0.21512827
H 2.4239447 0.6794504 -0.15310454
