9

O -0.40884975 -0.6365223 -1.8245009
C -0.031346485 -0.17731152 -0.6233423
N 1.0127813 -0.300742 1.276863
N 1.121928 -0.69118166 0.01341137
N -0.84973025 0.46647453 0.24911904
C -0.17126982 0.34287804 1.3743052
H 1.0723423 0.44076538 -0.73121876
H -0.5092058 0.74963105 2.320037
H -1.2366494 -0.19399166 -2.0546732
