10

C -1.2205752 -0.38272366 -0.35063833
C -0.091858156 -0.81413025 -1.0421844
N 1.13609 -0.43492052 -0.6958629
C 1.2214485 0.3825815 0.34933433
C 0.09073829 0.8138317 1.043291
N -1.1359228 0.433244 0.6977579
H -2.2166092 -0.7026461 -0.6477919
H -0.18024832 -1.4819819 -1.8966851
H 2.2166824 0.7056017 0.64564866
H 0.18025446 1.4811434 1.8971307
