12

O -0.36332807 0.38374028 -1.74422879
C 0.00768814 1.07561253 -0.57937790
C 0.34866856 0.08324987 0.52939121
O 1.36826172 -0.76318076 0.06951800
C -0.86118336 -0.75127197 0.89415723
O -0.81532437 -1.95846155 0.87537598
H -0.84093056 1.70397103 -0.28441446
H 0.87646264 1.72830746 -0.74346746
H 0.33978784 -0.26611039 -1.89411741
H 1.05733665 -1.66823100 0.25022489
H 0.65811354 0.63460606 1.43379660
H -1.77555298 -0.20223119 1.19314178
