12

O -0.661072 1.4922075 -0.8154238
C 0.1864446 0.41809797 -1.1329578
C 0.480897 -0.40338197 0.12044647
O 1.0369326 0.45140082 1.0844387
C -0.7917405 -1.0151815 0.66978866
O -1.1290423 -0.82350546 1.8139151
H -0.25527525 1.919496 -0.045905028
H 1.1408862 0.7527824 -1.5635421
H -0.3268953 -0.1976017 -1.8801275
H 1.1666642 -1.2294803 -0.13344206
H 0.5308067 0.2913963 1.9001228
H -1.3786062 -1.6562297 -0.01731377
