11

C -0.59252371 1.62910817 0.38096016
N -0.01066429 0.52073831 0.06851927
C -0.64859408 -0.83811248 0.11217078
N 0.38862837 -1.72515934 -0.32724918
C 1.38986746 -0.93831626 -0.55770949
N 1.26229401 0.40351522 -0.35745703
H -1.62440429 1.59899482 0.71128140
H -0.02750448 2.54885873 0.30234882
H -1.51299279 -0.84289224 -0.55843620
H -0.97284223 -1.04923540 1.13667116
H 2.34873589 -1.30749943 -0.91109968
