12

O 1.13106339 0.58705501 -1.31965972
N 0.15011874 0.62447177 0.83673754
C 0.15690435 1.17986619 -0.50935491
C 0.15167227 -0.81875633 0.91029496
N -1.55967408 -1.91685331 -0.76718303
C -0.81290716 -1.47366195 -0.00253561
H 0.43264024 2.23219946 -0.41954296
H -0.63993460 1.00180444 1.35011354
H 1.15270113 -1.18878630 0.66793907
H -0.07202425 -1.12850256 1.93603968
H -0.84312200 1.11941688 -0.97788877
H 0.75256169 -0.21825351 -1.70495949
