11

N 0.97992975 -1.7065587 -0.1644148
C 0.34057724 -0.48903418 -0.0586669
C -0.51689374 -0.04952968 0.9602367
N 0.42424417 0.4282943 -1.0343388
C -0.3687992 1.4256611 -0.61784184
N -0.9466527 1.1991289 0.65852153
H -1.6337633 1.1870512 -0.42220184
H 1.218547 -2.1504545 0.7078436
H 1.7419951 -1.695187 -0.82679445
H -0.87664187 -0.5760494 1.8347039
H -0.36254278 2.426678 -1.037047
