11

N 1.1910645 -0.5520529 -0.19586504
C -0.20767868 -0.9548638 -0.24877304
C 1.2121011 0.7446889 0.22915779
N -2.1508996 0.53652453 -0.054477073
C -0.9010082 0.38070747 0.015653128
N 0.07759649 1.3529644 0.33472714
H 1.9336652 -1.1957067 0.021999659
H -2.3789046 1.5060949 0.15861613
H -0.48418334 -1.3648132 -1.2246171
H 2.1627588 1.2284966 0.43188372
H -0.45451152 -1.68204 0.53169477
