12

O 0.8167457 -0.9902995 1.2985137
C -0.47874567 -0.95305955 0.7552545
C -0.6530989 0.3153597 -0.09135493
C 0.49178475 0.55225676 -1.103924
N -0.0042057727 1.4586903 0.32094604
H 1.0095525 -0.060904596 1.5061923
H -1.6512679 0.4118614 -0.5469423
H -1.2509309 -0.944587 1.5408177
H 0.10292669 0.8272635 -2.0800576
H 1.0306538 1.4904728 -0.7286052
H 1.2167073 -0.2526465 -1.0196041
H -0.6301215 -1.8544074 0.14876416
