12

O 0.24119488 2.12964133 -0.87352596
C 1.13621792 1.34152269 -0.15007995
C 0.54719404 0.00460048 0.22877871
C -1.21727825 -1.53645924 0.20421054
N -0.62932850 -0.26125441 -0.14811182
H -1.50240272 -2.06013740 -0.71443239
H -0.56070938 1.59264302 -0.96784967
H 2.05286835 1.15844697 -0.73348182
H 1.44921906 1.85476015 0.77300572
H -2.13692461 -1.35711850 0.77107664
H -0.55078802 -2.18154278 0.79635334
H 1.17073718 -0.68510224 0.81405682
