10

N -1.29790472 -0.81709517 0.66707014
C -0.31390293 -1.37780362 -0.07065883
C 0.89194075 1.11368630 -1.10693852
C 0.49732597 1.02784589 0.14900586
C 0.10935879 -0.25673451 0.79016385
O 1.23826976 1.22206606 -2.21344182
O -0.10477807 -2.13722354 -0.96923529
H -2.05558098 -0.29810373 0.23457164
H 0.51642256 -0.41783192 1.78690852
H 0.51884914 1.94119440 0.73255450
