17

C -2.4833748 -0.92685443 0.5947312
N -1.3225759 -0.42280656 -0.11661389
C -0.26444945 0.071694024 0.6280752
O -0.3520299 0.22273532 1.8391261
N 0.8563676 0.42069805 -0.09237597
C 2.0687873 0.75909775 0.6262407
C 0.93481255 0.3475077 -1.5392201
H -2.2692316 -1.8300083 1.1810594
H -2.8374984 -0.15923898 1.2868518
H -3.2766044 -1.144144 -0.124775045
H -1.0867009 -0.92704296 -0.9583044
H 2.854824 0.0096003 0.45832703
H 1.8360252 0.80133736 1.6904104
H 2.4500391 1.7351441 0.30261117
H -0.019484945 0.6396737 -1.9896631
H 1.696288 1.0539585 -1.8834283
H 1.2148068 -0.6513514 -1.903052
