17

C -0.06699694 0.27096874 -0.10569058
N -0.49041465 -0.83734936 0.42321086
C -2.3914986 0.0053009517 0.5029125
O -0.95043194 1.1766286 -0.24168654
N 1.2160118 0.4840575 -0.5308075
C 1.6614828 1.8059616 -0.92334396
C 0.2986639 -2.033492 0.55738616
H 0.88497216 2.261679 -1.5412626
H 2.57629 1.7186302 -1.5138825
H -2.6967957 -1.0247821 0.34779873
H -2.3235152 0.2844864 1.5471245
H 1.9050193 -0.14083907 -0.14672674
H -0.36626363 -2.865845 0.818382
H 1.0528721 -1.9667282 1.3564099
H -2.9697387 0.6995428 -0.10226265
H 0.8062909 -2.3057656 -0.37940514
H 1.8540528 2.4675457 -0.06815656
