11

C -1.45170921 2.33457337 0.88709676
N -0.05698796 -0.60020081 -0.23973687
C 0.04068874 0.64390629 0.26227975
O 1.00571880 1.28243364 0.54277363
C 1.10507028 -1.41047420 -0.53585368
O -1.30796680 1.11609147 0.41741769
H 1.15476544 -1.63167464 -1.60587256
H -0.98670652 -0.95859710 -0.40482683
H -2.56744473 2.41528061 0.89305080
H 1.07156507 -2.34640050 0.02794888
H 1.99300689 -0.84493817 -0.24427749
