10

O -0.9112385 1.1917355 1.7213286
C -0.22224623 -0.5164365 1.8953912
C 0.6048274 -0.3604468 -1.198626
C -0.38847184 0.4205711 0.87571347
N -0.064739004 0.64557797 -0.390309
H 1.5460982 0.031427093 -1.5964917
H 0.82990515 -1.2154206 -0.55263335
H -0.2043486 1.5796182 -0.7474569
H -1.1601762 -1.082385 2.018862
H -0.02961055 -0.6942411 -2.0257783
