11

C -0.53024018 -1.43741033 -0.48915169
C 0.05761292 -0.36263526 0.38428297
C 0.40104015 0.95800960 -0.16054493
O 1.40760219 0.00224991 0.13720081
C 0.35712589 2.14425371 0.68348197
N 0.29727405 3.08890285 1.34402653
H -0.24772172 -1.28931972 -1.53550035
H -1.62259178 -1.42822690 -0.41567731
H -0.17450992 -2.42205628 -0.17275560
H -0.19076638 -0.40652303 1.44503112
H 0.24517508 1.15275532 -1.22039358
