11

C -0.43801564 -1.3797886 -0.56829107
C -0.5145952 0.01564154 0.037699915
C 0.84204113 0.64504033 0.22630353
O 1.8962686 0.14007998 -0.053907685
C 0.8134975 2.0105193 0.8167472
N 0.7798442 3.0666966 1.2772255
H 0.047126513 -1.3578209 -1.5481762
H -1.4446166 -1.7887244 -0.68874294
H 0.13707969 -2.0554512 0.0710289
H -1.011132 0.006447755 1.0169281
H -1.1074979 0.69735944 -0.5868153
