10

C 0.5971458 1.3858613 -0.5824523
O -0.40486592 0.3873615 -0.38242963
C -0.02934941 -0.62384003 0.43111265
O 1.0527328 -0.71432084 0.9608818
N -1.062873 -1.5048803 0.5806039
H 0.8582858 1.8659338 0.36415634
H 0.14960445 2.1108358 -1.265037
H 1.4965299 0.9508464 -1.0255301
H -1.8302479 -1.463566 -0.06916226
H -0.82696277 -2.3942316 0.9878567
