10

N -0.25956893 1.0590914 -1.0216227
C 0.54435796 -0.94608045 -0.7611258
N 0.13232681 -0.6520401 0.43404862
O 0.3626959 -0.026958838 -1.6846603
C -0.36516556 0.6070763 0.204937
O 1.1292769 -2.0599012 -1.1636809
N -0.9740892 1.3053857 1.2071764
H -0.6612832 1.0607095 2.1338575
H -1.0887173 2.2920794 1.0409298
H 1.1801666 -2.6393614 -0.3898597
