10

N -1.41866723 0.04002056 0.46748811
C -0.27895409 0.64327447 0.22862479
N -0.08470993 1.97861760 0.43365103
O -1.10453726 -1.31078603 0.17942316
C 0.15619291 -1.30680369 -0.19640285
O 0.66272942 -2.48103796 -0.52711737
N 0.75278606 -0.15410200 -0.20157044
H 0.64911816 2.38290280 -0.12715349
H -0.92251869 2.53285420 0.50604071
H 1.58856064 -2.32493941 -0.76298373
