15

N -0.4758856 -2.2412074 1.2976207
C -0.31924257 -0.9282258 0.9009685
O -0.80113024 -0.002137217 1.545248
N 0.41592878 -0.760966 -0.24169973
C 0.93282807 0.5409824 -0.6715411
C -0.13378546 1.5845037 -1.015293
O -0.61164653 2.3033798 0.08970583
H -1.1871978 -2.3410983 2.0081022
H -0.47747916 -2.9579477 0.5888268
H 0.9734351 -1.5538739 -0.5256522
H 1.5285891 0.33757758 -1.567269
H 1.5990713 0.9716439 0.08793294
H -0.939294 1.0851309 -1.5778283
H 0.32252207 2.3211374 -1.6881477
H -0.82671326 1.641101 0.7690256
