15

N -0.089730985 -0.73417026 1.8975893
C -1.1133276 0.32879415 -0.8975458
O 1.5707505 -1.3825269 0.5475881
N -0.56879437 -0.92714745 -0.37928626
C 0.08971465 1.2684575 -0.8250081
C 0.44662103 -0.56987303 0.5823117
O 0.85180986 0.7729714 0.26972952
H 0.63093513 -0.502856 2.5727365
H -0.88721484 -0.12093585 2.0220456
H -0.1370274 -1.4846109 -1.1083212
H 0.68434775 1.2239276 -1.7487681
H 2.1403246 -1.0562354 -0.15604106
H -1.9204971 0.67446136 -0.24291196
H -0.17547762 2.3121948 -0.6308352
H -1.5224336 0.19754937 -1.9032834
