9

O 0.7685486 0.7000522 -1.4723759
C 0.15400487 0.12361341 -0.42490762
N 0.40446368 0.3688872 0.87838566
N -0.37354043 -0.40312988 1.6750485
C -0.8184343 -0.8439203 -0.4070791
N -1.0997897 -1.1283932 0.89418775
H 1.0748192 0.99022835 1.304835
H 1.2031245 1.523013 -1.2145555
H -1.3131963 -1.3303508 -1.2335387
