9

O 0.16506515 0.41862243 1.8342446
C 0.10827716 0.084583916 0.5396477
N -0.51657623 -1.0007341 0.08145209
N 0.31216696 0.15234633 -1.6598945
C 0.6764862 0.7677938 -0.53498286
N -0.35481468 -0.93648124 -1.3547555
H -0.26281992 -0.27997833 2.3487124
H 1.3005961 1.649561 -0.5272972
H -1.4283808 -0.855714 -0.7271268
