11

O 0.08971529 1.1669983 -0.33976132
C -1.0459595 0.3860771 0.011503633
C 1.2611735 0.7167739 0.13686788
O -1.7133275 -1.8951157 -0.20793565
C -0.9918144 -1.009007 -0.5855709
N 1.3587537 -0.34571046 0.8123905
H 2.0600314 1.4007075 -0.1582877
H -1.901199 0.92293173 -0.4088913
H -0.2820381 -1.1288824 -1.4299289
H -1.1596489 0.30469465 1.0960346
H 2.3243136 -0.51946753 1.0735791
