11

O 0.57147387 1.02859883 -0.31744869
C 1.36909190 -0.03612622 -0.49733134
C -0.54303470 0.81104796 0.53901174
O -2.37774808 -0.71247242 0.63944432
C -1.51718617 -0.20457922 -0.03126862
N 1.12828041 -1.16288759 0.01952875
H 2.20784027 0.24299552 -1.13892947
H 1.84109305 -1.83794337 -0.23915013
H -0.22919834 0.48324577 1.53390282
H -1.03986506 1.78279426 0.61145565
H -1.41074724 -0.39467345 -1.11921525
