11

O 1.682981 0.6630337 -0.5175674
C 0.7611453 -0.047191005 0.24995379
C -0.337053 0.6917003 1.0448762
O -1.350422 -0.14658415 0.41783518
C -0.42341998 -0.6849712 -0.44228274
N -0.55880517 -1.3771576 -1.4780221
H 1.2635872 0.90329087 -1.3534368
H 1.3159026 -0.7567404 0.8712087
H -0.3489343 0.57433355 2.1301243
H -0.46261564 1.7389436 0.75615835
H -1.5423661 -1.5586576 -1.6788477
