10

N -0.15870708 -0.7484382 -0.84668136
C 1.0605848 -0.28626025 -0.41971058
C 0.8371852 0.59517646 0.6094381
C -0.57085896 0.6663784 0.81025046
C -1.157911 -0.17429592 -0.10290124
H -0.29794562 -1.4162629 -1.5871023
H 1.9765155 -0.62351096 -0.88251555
H 1.5945053 1.1334827 1.1623071
H -1.0882546 1.2677191 1.544904
H -2.1951132 -0.41398823 -0.28798866
