10

N 0.95421025 -1.12544468 0.21962735
C 0.10034734 -0.02951728 0.68933342
C 1.36222709 0.24267721 -0.05458429
C -2.22895240 0.39047106 -0.50154875
C -1.17028804 0.21305423 0.03767810
H 0.54695352 -1.55376813 -0.60491423
H 1.26685849 0.62446537 -1.06799514
H 2.23492152 0.58816338 0.49350971
H 0.10216270 0.09679875 1.76961423
H -3.16844014 0.55310028 -0.98072042
