11

N 1.346895 0.56702954 1.839676
C 0.64151454 0.26540178 0.83574176
C -0.7669934 -0.17708248 0.85482705
C -1.1563863 -0.396348 -0.39562386
C -0.013214065 -0.10780476 -1.3245894
O 1.056327 0.2963373 -0.4707705
H 2.2836986 0.844178 1.5529387
H -1.3288796 -0.28021926 1.7744595
H -2.1297174 -0.72533405 -0.7403632
H -0.23332845 0.70263046 -2.029114
H 0.30008397 -0.98878866 -1.8971819
