10

O 0.67096334 -1.64304152 0.57513912
C 0.15968842 -0.48840246 0.05391013
C 0.14230961 0.79580202 0.42269257
O 0.65449278 1.63357787 1.32402316
C -0.88945837 -0.10632897 -0.97317525
O -0.75972149 1.27509003 -0.48320739
H -0.62586964 -0.15278908 -2.03381576
H -1.90889060 -0.46368791 -0.80293605
H 1.35947360 -1.97010173 -0.01989585
H 1.19701227 1.11988164 1.93726569
