10

O -0.019796927 -1.3797239 -0.9551887
C -0.40561825 -0.38689137 -0.05253138
C 0.6851576 0.008606439 0.9453432
O 0.632785 1.3847243 0.47531798
C -0.25964466 1.0720489 -0.50361097
O -0.69063413 1.7716756 -1.3652464
H -0.6520827 -1.3914776 -1.6836668
H -1.3845773 -0.5815078 0.40939286
H 1.6536059 -0.44215602 0.72480017
H 0.4408054 -0.05529867 2.0053904
