10

O -0.24551001 -2.1506145 -0.30067858
C 0.48682037 1.1647284 -0.44795159
N -0.45124352 1.2354583 0.6186608
C -0.7875879 -0.0559841 0.81584364
C -0.13333449 -0.82299894 -0.15602417
N 0.65682024 -0.078298636 -0.92508215
H 0.7780214 2.0655315 -0.9777093
H 0.31141075 -2.4011068 -1.0508504
H -1.4185742 -0.37390557 1.6336783
H 0.80317736 1.4171903 0.79011333
