10

O 0.061417587 -1.4496835 1.6629189
C 0.03650193 -0.47563678 0.73869365
N 0.13377585 0.80272496 0.9512047
C 0.05553149 1.3647518 -0.31043687
C -0.08942025 0.4058779 -1.2653285
N -0.10064735 -0.79760206 -0.5674049
H 0.1648318 -1.001758 2.513554
H 0.10814063 2.4363432 -0.4453554
H -0.18401548 0.4441436 -2.3388076
H -0.1861162 -1.7291611 -0.9390378
