11

O -2.024766 0.44412825 0.4298801
C 0.91975653 -0.9493337 0.328481
N -0.09137467 0.85992223 -0.97666085
C 0.63793993 0.5442935 0.26904312
C -0.7652119 0.12876214 0.035300177
O -0.47831544 -1.2496697 0.060373068
H 1.119633 1.344815 0.8187352
H -2.2790744 1.2447066 -0.05080919
H 0.18001135 0.3077982 -1.7878122
H 1.5726386 -1.3656123 -0.44586527
H 1.2087628 -1.3098105 1.3193347
