11

O 0.3717731 0.86490965 -1.154811
C 0.69551855 -0.3503119 0.82022166
N -0.02899814 -1.2024428 -0.16241717
C -0.59694195 -0.070252724 -0.8554925
C 0.06082903 0.9169487 0.27015767
O -1.8209646 0.026129996 -1.2564191
H -1.4599025 0.6164563 -0.13709357
H 0.5665264 -1.7583672 -0.77151424
H 0.030112453 1.9167984 0.6875797
H 1.7850516 -0.37480387 0.7146627
H 0.396996 -0.58506453 1.8451257
