10

O -2.39459808 -0.12843685 0.69392068
C -1.45214127 -0.82286637 0.41987691
N 0.02637926 0.66550394 -1.27758165
C 0.94307008 0.65877307 -0.40256235
C 0.79009713 -0.18024801 0.82243501
N -0.24930221 -0.82461620 1.14147654
H -1.46956979 -1.62413959 -0.34349530
H 0.26680876 1.27386742 -2.06192116
H 1.87953548 1.22444470 -0.47434430
H 1.65972081 -0.24228210 1.48219588
