10

O -1.7673428 -1.1056225 1.211344
C -0.87745106 -0.5475169 0.60097617
N -0.86663336 -0.13783485 -0.7214926
C 0.34594783 0.4656397 -1.05199
C 1.1126001 0.447828 0.051847905
N 0.3734851 -0.16706331 1.0595676
H -1.6508842 -0.28544453 -1.3320434
H 0.54808927 0.8488113 -2.0394757
H 2.1136029 0.8139957 0.21597558
H 0.6685864 -0.3327926 2.0052907
