10

O -1.9964098 -0.4502489 1.4295964
C -1.330222 -0.93963283 0.5565246
N 0.03080153 -1.2492943 0.69528925
C 0.8390373 0.7794174 -0.41706648
C 0.98542106 -0.518905 0.30467197
N -0.30937493 1.1649903 -0.78923446
H -0.25991565 2.0615509 -1.2758902
H 1.77106 1.3281232 -0.59695566
H 2.007262 -0.8586643 0.4938351
H -1.7376597 -1.3173366 -0.40077057
