9

O 1.1264657 -0.7843696 -1.2693104
C 0.2719822 0.64280695 0.56727177
N -2.172753 -1.0390661 -1.0411735
N -0.7004884 1.0792955 1.2691156
N -1.1114694 -0.7184947 -0.79781294
C 0.09590586 -0.33656147 -0.48461512
H -0.36932683 1.7628503 1.9464185
H 1.3211861 0.9473731 0.66640896
H 1.5384978 -1.5538341 -0.8563029
