11

N 2.09572565 0.45050227 0.45700077
C 0.30597897 0.21037869 -1.25784344
C -0.99237592 -0.11755340 -1.09150243
C -1.27138439 -0.33810556 0.32198746
C 0.92434648 0.21325545 0.06657783
N -0.16505285 -0.15100828 1.00698998
O 0.07937951 -0.22320974 2.23128639
H 0.84684171 0.43179087 -2.16649468
H -1.74831057 -0.20998686 -1.86259309
H -2.19380707 -0.60720472 0.81602637
H 2.11865853 0.34114123 1.47856431
