11

N 0.96754974 0.46288857 -2.1412911
C 0.5791251 0.24169093 -0.9583408
C -0.8001376 -0.119700514 -0.6436745
C -1.1512322 -0.34073615 0.6251211
C -0.12409385 -0.20936522 1.642428
N 1.0976307 0.10506772 1.4172063
O 1.463058 0.3357965 0.10252708
H 1.9585649 0.69834614 -2.1645637
H -1.4798542 -0.18731092 -1.4840113
H -2.162265 -0.61044395 0.9141924
H -0.34834555 -0.37623316 2.690406
