11

N -0.15590383 -0.80106676 0.6309207
C 0.27791908 0.9693946 -0.83850306
C -0.8262514 1.2231884 -0.10547477
C -1.0832568 0.11432635 0.80491847
C 0.7834075 -0.33693156 -0.4208049
N 1.7720485 -1.0221958 -0.7866562
O 0.036085103 -1.9078518 1.1804924
H -1.4537896 2.1056216 -0.15096533
H -1.8695457 -0.020601066 1.5335451
H 1.774266 -1.8933749 -0.24156916
H 0.7450213 1.5694907 -1.6059033
