11

N -1.7712755 0.2567587 -0.46295825
C 1.1335608 -0.30245262 -0.96235925
C -0.044405967 -0.2127916 1.2293335
C -1.309646 0.008549993 0.8895845
C 1.1349136 -0.29777455 0.35575876
N 1.1751503 -0.40597814 -2.1706355
O -1.5307455 1.3800145 -0.8412658
H -2.1317985 -0.07199016 1.5968795
H 2.1078627 -0.38798267 0.83151776
H 0.15692164 -0.38489294 2.2845583
H 1.0794623 0.4185395 -2.7504137
