11

C 1.1547631 -0.74656457 -1.4606197
N -1.3826721 0.015949253 1.6202223
C -0.4948808 1.2707021 0.10480477
N -1.4990726 1.1989061 0.9262415
C -0.31227913 -0.5868248 1.1990466
N 0.31128123 0.17261243 0.24228741
H -0.2938007 2.0835228 -0.57795984
H 0.50317436 -0.19511695 -2.1616912
H 0.063585564 -1.5355903 1.554318
H 1.3163769 0.02540066 -0.17065686
H 0.63352394 -1.7029969 -1.2759932
