11

C -0.93460953 1.30318 0.29726943
N -0.08997268 0.15753208 0.029090915
C -0.3828087 -1.1518188 0.008654727
N 0.694388 -1.8567189 -0.2773179
C 1.6393125 -0.8955862 -0.42599145
N 1.2159809 0.33966812 -0.25118062
H -0.5732681 1.8279077 1.1848773
H -0.91184807 1.9780174 -0.56119907
H -1.9547049 0.9545689 0.464854
H -1.3729516 -1.5432254 0.20319463
H 2.6704824 -1.1135253 -0.6722519
