11

C -0.76092553 -0.98322517 -0.56694126
N 0.006207844 0.00048196941 -0.021635557
C 1.2505608 -0.5499331 0.050807144
N -0.041769966 -2.04188 -0.8135286
C -0.4179446 1.3096733 0.439868
N 1.2411036 -1.7650552 -0.4192625
H 2.1103022 -0.028455213 0.44535303
H -1.8177184 -0.8748864 -0.7642595
H 0.4205852 2.0042605 0.36435172
H -1.2324569 1.667762 -0.19272147
H -0.7579441 1.2612573 1.477969
