9

O -1.5026281 -1.5196289 0.008961308
C -0.31842905 -0.84836435 0.08575923
N 0.3708312 1.4427699 -0.27374154
N 1.6034625 1.1680067 -0.30045316
C -0.49191833 0.6159923 0.2548145
N 0.8653904 -1.1997653 0.210472
H 2.0185246 1.7980473 -1.0054705
H -1.2556753 1.0031707 0.9233485
H -1.2895582 -2.4602277 0.096309714
