9

O 0.79492323 0.84728002 -1.76838645
C -0.06774230 0.26655663 -0.96326748
N 0.70354689 -0.88106312 1.46603386
N -0.15939451 0.00438631 1.54247248
C -0.78385272 0.31317722 0.27084180
N -0.81693531 -0.73423935 -0.83476472
H 0.93525905 0.28006739 -2.54246467
H 1.06533731 -1.02310658 2.42007199
H -1.67114161 0.92694135 0.40946342
