9

O 0.7511271 0.24696577 -2.079395
C 0.2631051 0.1081449 -0.83686167
N 0.9891124 -0.31734934 0.1752885
N 0.07955464 -0.28283048 1.1812683
C -1.1055824 0.1495536 0.72231495
N -1.0291227 0.41042113 -0.56602305
H 1.6825399 -0.009254668 -2.0540094
H 0.35040218 -0.56250596 2.109856
H -1.9811362 0.25685492 1.3475616
