11

N 1.45135301 0.23336465 -0.58519680
C 0.18470550 0.36972202 -0.56194365
C -0.60764376 -0.13061827 0.58002593
C -0.08165328 -0.94484360 1.47539515
N 0.33013092 -1.77992838 2.25521536
N -0.60217172 1.02534769 -1.50826941
H 1.84283247 0.60852213 -1.45193141
H -0.14496615 1.19675107 -2.39159404
H -1.54114618 0.66984685 -1.62300617
H 0.80249693 -1.44085005 3.08936402
H -1.63393792 0.19268603 0.72194133
