10

C -1.2208092 -0.3830366 -0.34992778
C -0.094174415 -0.812423 -1.0439318
N 1.1346341 -0.43168652 -0.6992499
C 1.221238 0.3826523 0.348814
C 0.09291742 0.8131113 1.0434436
N -1.135677 0.434555 0.6992523
H -2.2166984 -0.705264 -0.645714
H -0.18374255 -1.4800637 -1.8979846
H 2.2177963 0.7042027 0.64665395
H 0.18451601 1.4779521 1.8986444
