10

C -1.3596532 -0.70777583 0.1731704
C 0.43981463 -0.21891253 -1.1407889
N -0.7547798 -0.8419099 -0.9890327
C -0.9060448 0.034100763 1.328524
C 0.994102 0.5114023 -0.13866976
N 0.29329035 0.59829485 1.0351243
H 0.72148716 1.1490982 1.774115
H 0.93989277 -0.3274985 -2.0995805
H 1.9456613 1.0279214 -0.20271683
H -2.3137703 -1.2247212 0.25985542
