10

C -1.49326039 -0.31349875 -0.22689923
C 0.68273867 -0.59172739 -0.85234128
N -0.62946605 -0.86834267 -1.05187643
C 1.09367605 0.22046798 0.15577884
C -1.21694402 0.57084808 0.88330946
N 0.12551975 0.75557443 0.96374804
H -2.53648973 -0.56129493 -0.41493077
H 1.39693845 -1.04775528 -1.53286139
H 2.12749554 0.47411428 0.36372096
H 0.44979200 1.36161384 1.71235196
