11

O -0.3261986 -1.3075532 -2.1638446
C -0.28727627 -0.746524 -1.104447
C -0.36124894 -1.3228015 0.2624535
C 1.2298892 1.0302083 -0.45784923
N -0.030101357 0.8980299 0.44551784
C -0.20006655 -0.34099057 1.1448276
N -0.14324126 0.6746758 -0.9658354
H -0.15022491 -0.3379151 2.2239747
H 1.2910336 2.1243258 -0.6091519
H -0.5547287 1.7079791 0.7605558
H -0.46783614 -2.3794346 0.46379873
