11

O -1.1506068 -1.5399971 -1.6486074
C -0.3130119 1.1497337 0.3810292
C -1.2320601 0.4635348 -0.29844832
C -0.6372235 -0.73961365 -0.91348135
N 0.84846824 0.40195814 0.5785581
C 0.7986604 -1.1087297 0.768899
N 0.7932917 -0.91394854 -0.58882445
H -2.2522027 0.7616246 -0.49890766
H 1.7299175 0.8281889 0.30547696
H -0.35428315 2.1560383 0.78417623
H 1.7690506 -1.4587895 1.1301298
