11

O -1.55167049 1.90742022 0.67260032
C -0.19837499 -1.19478969 0.00750689
C 0.94839461 0.77407955 -1.13354798
C -0.86862898 0.94422700 0.46211254
N 0.55648110 1.00352226 0.30301055
C -1.27600703 -0.47570099 0.30773535
N 0.94523987 -0.33282492 -0.03998868
H 1.79528111 -0.62956869 0.42891803
H 2.01544707 1.06419193 -1.16450099
H -2.29914164 -0.81773571 0.37542633
H -0.06702067 -2.24282086 -0.21927235
