10

C 0.4175972 0.92914885 0.8571575
C 0.61868316 -0.3215808 1.2222072
N 0.53398234 -1.4813471 0.8065564
C 0.11305955 0.80992526 -0.6405556
N -0.65212905 -0.4121933 -0.944653
C -0.5249038 -1.4271475 -0.19976829
H -1.0724303 -2.3499405 -0.37264633
H 0.103880115 1.7527245 1.4814662
H -0.5180474 1.6654873 -0.89798045
H 0.9803082 0.8349233 -1.3117838
