10

C 0.0825553 -0.92348325 -1.228222
C 0.3395284 0.05711146 0.97606206
N -0.47956172 1.08236 0.57100683
C 0.93854904 -0.7063636 -0.08129878
N -0.9613935 -0.13205568 -1.3998274
C -0.9453232 1.020949 -0.63421685
H -1.4631956 1.8921593 -1.0296439
H 0.6524284 0.031282734 2.0174956
H -0.06414405 -1.1227444 0.80815065
H 1.9005569 -1.1992154 0.00049388304
