10

C -1.0853031 0.24385245 -0.25078893
C -0.3188827 -0.5971777 -1.0490524
N 0.94914 -0.8894272 -0.76579857
C 1.446216 -0.32493612 0.3350551
N 0.8117204 0.49313122 1.173861
C -0.45585084 0.76929575 0.8690834
H -2.1166162 0.47736317 -0.4881503
H -0.7317341 -1.053559 -1.946502
H 2.4819062 -0.5561287 0.5735675
H -0.98059565 1.4375857 1.5487251
