10

C -0.05588751 0.97944109 -0.34153258
C 0.15399835 -1.34960051 -0.71207054
N -0.16793890 -0.22197887 -1.18746235
C 0.35744012 -0.53743815 1.25034809
N 0.84919189 -1.44345483 0.57041304
C -0.22089224 0.64257362 1.14487104
H -0.88448646 1.64398985 -0.60296837
H 0.08142008 -2.26802093 -1.28865993
H 0.87161725 1.49564513 -0.61822864
H -0.98446257 1.05884317 1.78529013
