9

O 1.0189431 1.9725823 0.9813279
C -0.11024767 1.3524191 0.5693617
C -0.2560379 0.09771037 0.23220159
C -0.0965043 -2.0988498 -2.4528704
C -0.41983512 -1.1619697 -0.08894033
N -0.23925057 -1.6360604 -1.3805401
H 1.761478 1.3542182 0.9626734
H -0.70993364 -1.9243028 0.628838
H -0.9486119 2.0442529 0.547948
