11

C -0.2490135 0.050530277 -0.074607015
C -0.85186774 -1.2883872 -0.27512646
C -1.1631627 1.1909047 0.07590306
O -0.018373217 -0.28419 -1.4652332
C 1.0621033 0.23776828 0.6580056
N -1.8684473 2.0890274 0.23167308
H 0.8802375 0.2688385 1.7357519
H -0.10094141 -2.0546398 -0.037881732
H 1.5455284 1.1723207 0.35734665
H 1.725072 -0.59899783 0.42540103
H -0.9611353 -0.78317493 -1.631233
