11

C -0.9903271 0.8931663 -0.118889935
C 0.058241688 -0.19453031 -0.17084683
C 0.6766456 -0.73776937 1.0462794
O -0.3127485 -1.4650621 0.33647716
C 0.83899015 -0.24664237 -1.4064817
N 1.4482043 -0.2509523 -2.3874397
H -1.7194976 0.7610567 -0.9227726
H -1.5144887 0.8497869 0.8397812
H -0.5285358 1.8788348 -0.22829367
H 1.6815436 -1.154412 1.0062904
H 0.36197206 -0.3334761 2.005896
