11

C -0.93082875 0.33746991 0.79861984
C 0.07941645 -0.12231176 -0.23026716
C 0.23647969 -1.57938412 -0.26031863
O 1.36592944 0.54766985 -0.00527729
C 0.39288129 0.59928154 -1.49932187
N 0.36010397 -2.72592414 -0.29446019
H -0.03759042 1.60740226 -1.35057433
H -1.93369624 0.04624603 0.47579097
H -0.88520636 1.42709296 0.87598778
H 2.08867093 -0.03502161 -0.29175966
H -0.73616033 -0.10252077 1.78158026
