11

N 0.87966322 -1.07535611 0.26774503
C -0.26407077 -0.14934830 -1.55154030
C 0.31722391 -0.01503306 1.06174094
N 0.81223640 0.27305187 2.18833906
C -0.86771409 0.67007351 0.51541536
N -1.15953032 0.63228753 -0.71262938
N 0.59724656 -1.15981917 -0.93964455
H -0.86134568 -0.66751799 -2.30907749
H 0.38965468 0.54492965 -2.09256298
H 1.64365419 -0.29456795 2.36492838
H -1.48701817 1.24129980 1.20728584
