10

N 1.13530076 1.39168203 -0.29819162
C 0.49037297 0.19033550 -0.13762151
N -0.81923658 0.10343722 0.25506729
O -2.24327602 -1.74946935 0.37719781
C -1.18017615 -1.23468733 0.17288621
O -0.04854636 -1.88180464 -0.20150046
N 1.01066398 -0.96435022 -0.38489844
H 1.04337340 2.02665309 0.48171461
H -1.48901030 0.85210969 0.30737177
H 2.10053433 1.26609423 -0.57202579
