10

N 0.0558489 0.3584284 1.2023507
C -0.4929518 -0.28528616 0.1881873
N -1.2166647 -1.2586577 0.7070779
O 1.2241303 1.0023532 0.71057796
C 1.1715451 0.93415326 -0.649124
O 1.9629469 1.429203 -1.3975288
N 0.03808945 0.16794737 -0.981663
H -0.54090047 -0.6169478 1.8135897
H -0.09176818 -0.21166848 -1.9043866
H -2.1102757 -1.5195253 0.3109185
