10

N 0.22613874 1.7656618 0.3941899
C -0.20411907 0.47973812 0.16284694
N -1.4049052 0.049172133 0.35841855
O -1.3353958 -1.3392738 0.105720446
C -0.07846203 -1.6966046 -0.25885403
O 0.28643513 -2.8075325 -0.52207816
N 0.6438093 -0.5135333 -0.2537857
H 0.75282735 2.1731198 -0.36771813
H -0.5333516 2.3677003 0.6831023
H 1.6470232 -0.47844774 -0.30184224
