11

C -0.11202919 0.06398418 -0.49716464
O 0.08606869 -1.50814589 -2.31692221
C -0.41052466 -1.06680860 -1.12467525
C 0.09505320 0.88554014 1.67617892
O -0.76935238 0.41564311 0.66097992
H -1.14470589 -1.75462234 -0.71402281
H -0.54013737 1.20621281 2.50576959
H 0.61625265 0.78307232 -0.88328185
H 0.71597150 -0.86018880 -2.65446899
H 0.77320319 0.09253451 2.01691463
H 0.69020006 1.74277860 1.33069263
