10

O -1.5516719 -0.3136004 2.381695
C -0.8396527 0.43536675 1.7658207
C 0.94773656 -0.0008825124 -1.2729917
N 0.60386115 0.822301 -0.18600991
O -0.43770114 -1.1473957 -0.060207307
C -0.1922258 0.06420779 0.47574762
C 0.358917 -1.292802 -1.1924868
H -0.01964486 -0.32365635 -2.040968
H -0.59364223 1.4599218 2.0975175
H 1.7240239 0.29653943 -1.9681175
