10

O -1.33278210 1.89480736 -1.70145732
C 0.75512904 -1.22071098 0.75252767
C -0.24342977 0.43309141 -0.17935373
N 0.19852931 0.12154038 0.95014421
O -0.06485781 -0.54829384 -1.18838178
C 0.54910814 -1.60500146 -0.69396742
C -0.92663012 1.69627098 -0.58456981
H 0.26643839 -1.95323993 1.40576291
H 1.82145029 -1.24276555 1.00291066
H -1.02295541 2.42430167 0.23638485
