11

N 1.3498816 0.5697391 1.8362466
C 0.6404421 0.26638854 0.8339342
C -0.76773506 -0.17405106 0.85739136
C -1.1576798 -0.39452627 -0.39474428
C -0.014124682 -0.10925079 -1.3241845
O 1.0565546 0.29504943 -0.4695933
H 2.28806 0.84148407 1.5485536
H -1.3307816 -0.27833807 1.7737014
H -2.131345 -0.7261451 -0.73840547
H -0.23292956 0.70074433 -2.0291862
H 0.29965746 -0.9910942 -1.8937135
