11

N -2.3142745 -0.48166066 0.6170209
C 1.0645372 -0.61712307 -0.17215814
C 0.7363051 0.83190656 -0.47866818
C -1.1097441 -0.29184464 0.2854169
C -0.061202 -1.3753822 0.1950001
O -0.62391865 0.9447597 -0.09535937
H 2.0252533 -1.0550809 -0.43550524
H 0.83895177 1.0298448 -1.5529759
H 0.9542459 -0.9260825 1.0114124
H 1.3404309 1.5560776 0.07622297
H -2.8505847 0.38458517 0.5495936
