11

N -1.3403089 -1.7168027 0.047441635
C 0.5865076 1.0740185 -0.79674524
C 1.1987216 0.85597175 0.53006744
C 0.33381692 -0.21225858 1.076723
C -0.59426445 -0.7049316 -0.014193963
O -0.48998263 0.14983279 -1.0649973
H -0.25385427 0.33773223 1.8385011
H 0.2155403 2.1044688 -0.8759809
H 0.84953326 -0.99780136 1.6364595
H -1.8699222 -1.8418624 -0.81271285
H 1.3642124 0.9516327 -1.5645624
