11

N 1.3470956 0.57086134 1.8380115
C 0.63961625 0.2673007 0.8351612
C -0.76830655 -0.17572546 0.85468554
C -1.1570723 -0.39612132 -0.39726162
C -0.0134809315 -0.10877436 -1.3255475
O 1.0552748 0.29491383 -0.4677768
H 2.2863224 0.8448383 1.5548304
H -1.3293128 -0.28068385 1.7742116
H -2.129391 -0.7290231 -0.7405189
H -0.23215732 0.70152134 -2.0290701
H 0.30141172 -0.9891075 -1.896725
