11

O -1.7477617 -1.033822 -0.33128318
C 0.641617 -0.91729337 -0.38716984
C -0.68499714 -0.35686645 -0.75754964
N 1.241365 0.1279892 0.27065855
C 0.21931177 1.0254275 0.6573775
O 1.0845683 -2.0122929 -0.6700209
H -0.6023041 0.8479297 -0.49465755
H -2.5240324 -0.7545313 -0.8359068
H 0.47978553 2.084814 0.59640026
H -0.34388632 0.75541353 1.552651
H 2.236334 0.2332325 0.3995004
