10

N -0.72839792 0.37179011 -0.45267307
C -0.38571237 1.68613255 -0.06572426
C 0.14517126 -0.71851321 -0.03366280
O 0.32365371 2.41318680 -0.71260321
C 0.35944253 -0.34808680 -1.24108044
N 0.26510777 -1.38359737 1.13606158
H 0.75603387 -0.33446736 -2.23657043
H -0.91480907 2.01239581 0.85067891
H 0.77947073 -2.25244306 1.09665326
H -0.59996047 -1.44639749 1.65892037
