10

N -0.67156164 0.41144321 0.78343286
C -1.46238174 0.61948047 1.69615184
C 0.84022802 -1.24766559 0.03765534
N -0.07816607 0.47214122 -1.48590058
C 0.00911099 -0.05592438 -0.20195096
O 0.96583374 -1.78004615 1.11450759
H -0.58760993 1.34320430 -1.54612026
H -1.16633347 1.34153495 2.46021879
H 1.35160177 -1.62117274 -0.87545388
H 0.79927822 0.51700457 -1.98254083
