10

O 1.68760180 -0.68412924 -0.49860082
C 0.61120829 -0.97321018 -1.23187446
N -0.72915964 0.90889037 1.42310051
C 0.00802342 0.24164004 0.46343933
C -0.50180809 -0.42483591 -0.69523530
N 1.30515892 0.09875811 0.57482727
H -0.15417748 1.45147720 2.05490403
H -1.49526387 1.45104273 1.05242390
H -1.52319407 -0.48587465 -1.03767663
H 0.79161071 -1.58375848 -2.10530788
