12

N -0.91653002 -0.77590005 1.49718003
C 0.59980103 0.69577462 -0.22786457
N 0.53221281 -1.45678953 -0.32813137
C 1.34414688 -0.53440712 -0.69648765
C -0.38964632 -0.43500249 0.24514366
C -0.59843360 1.00080805 -1.10052695
N -1.40104764 0.07314830 -0.72662365
H 1.08111551 1.46723215 0.37522995
H 2.28538471 -0.67724084 -1.22183443
H -0.20983546 -1.04462409 2.16967648
H -1.54025600 -0.07257460 1.87092017
H -0.78691134 1.75957551 -1.85668146
