11

C 0.30628914 1.2489833 -0.17321827
C -0.73310757 -1.0303931 0.694924
O 1.0783836 -0.75021046 -0.88377595
C 0.20931488 -0.20255592 -0.10343877
O 1.2949249 1.663758 -0.8745679
H -0.7053099 0.85236925 -0.82381636
H -1.1849395 -1.8105414 0.07700726
H -1.5110476 -0.411978 1.1493865
H -0.17537363 1.8345053 0.6240397
H 1.5810667 0.1257031 -1.1771656
H -0.160201 -1.5196401 1.4906255
