11

N 0.3024278 0.9596114 -1.9939146
C -0.46133244 -0.37240562 1.3799518
C -0.4238507 1.0388407 -0.8465967
N 1.1224399 -0.03803902 -1.9079561
N 0.92716575 -0.60145795 -0.7057852
C -0.036132567 0.03436389 0.0053825136
H -0.7555463 -1.4263285 1.4136811
H -1.3216872 0.22446956 1.6934346
H 1.4808668 -1.4026188 -0.4483915
H 0.33853897 -0.21883768 2.1107554
H -1.17289 1.8024021 -0.7005619
