11

C -0.77489746 0.8780637 1.5453929
N 0.58310765 0.518359 1.175628
C 0.83601904 -0.05575821 0.09628015
O -0.14467333 -0.39237157 -0.8405267
C 0.25329158 -1.0243404 -1.9658744
O 1.3778082 -1.3323572 -2.2382998
H -0.7908489 1.952345 1.7503868
H -1.0142363 0.36365744 2.4800124
H -1.5386556 0.6401954 0.79626644
H 1.8409464 -0.33642188 -0.20240097
H -0.6278614 -1.2113712 -2.5968652
