10

O 1.68742188 -0.53666514 1.35954787
C -1.30041021 -0.02527923 -0.24968374
N -0.62067316 0.55882387 -1.15579533
C 0.76988524 0.48910211 -0.71257980
C 0.77587792 -0.24592756 0.62542239
N -0.57012233 -0.52750867 0.82668878
H -2.38023636 -0.14651445 -0.27319299
H 1.38277304 -0.04552456 -1.44581933
H 1.19301844 1.49280126 -0.60351357
H -0.93753408 -1.01330743 1.62892620
