10

O 1.5402538 -1.7799019 -0.15490568
C 0.68593025 -0.9116744 -0.09929153
N 0.783054 0.26171926 0.7250879
C -0.58494973 -0.70427203 -0.71915716
C -0.29261062 1.0560361 0.59807914
N -1.1992645 0.52040696 -0.2081702
H -0.40466088 2.0139844 1.0858395
H -1.1954138 -1.4161739 -1.2502973
H 1.5726174 0.4139664 1.3339865
H -0.90495557 0.54590905 -1.3111712
