10

O -1.5791153 0.26273322 -1.4309951
C -0.15473421 -0.6088342 0.3653542
C -0.74795645 0.4000662 -0.5841063
O -0.38941813 -1.9203498 0.12439267
C 1.2554792 1.1969429 0.057145342
O -0.03544657 1.5324246 -0.30958042
H -0.36755332 -0.37162283 1.4098731
H -0.45027518 -2.0571566 -0.83071136
H 1.0545597 -0.15448004 0.17345412
H 1.4144602 1.7202767 1.0251735
