10

O -1.5088891 0.9344974 1.1395018
C 0.554591 -0.28241608 -1.2318298
C -0.42658663 0.9906217 0.61266255
O -0.34582895 -1.4170965 0.70685506
C 0.32847843 -0.28763536 0.27815956
O 0.091728695 -1.1227732 -1.953288
H 1.1611123 0.56832504 -1.6097474
H -1.2291621 -1.1179163 0.9727167
H 0.051821433 1.9479225 0.33176312
H 1.3227351 -0.21352929 0.7532064
