10

N -1.5810937 0.6427941 -0.74896276
C 0.2961677 -0.50105906 -0.8703426
N -1.0247078 0.72196907 0.43934458
N 0.995953 0.047373705 1.4761971
N -0.76239556 -0.13306013 -1.6061817
C 0.15615435 0.089264475 0.38663995
H 1.075652 -1.1327959 -1.2714305
H 0.7656891 0.73044884 2.1826522
H 1.9799283 -0.004548837 1.2698306
H -1.9013475 -0.4603861 -1.2577465
