10

N 0.9744898 1.4206252 0.5553881
C 0.25720933 0.31879568 0.10047216
N 0.24340558 -0.023842692 -1.1819049
N -0.47273043 -1.1404475 -1.1856343
N -0.9350262 -1.550502 -0.028290018
C -0.48376894 -0.63698155 0.8258722
H 0.49990565 1.9494697 1.2733655
H 1.2540845 2.0211353 -0.20805843
H -0.64457494 -1.6520618 -2.0344448
H -0.69299436 -0.7061903 1.8832347
