10

N 1.0112475 -0.41665763 -0.86778444
C 0.22879796 0.42337695 -0.13679254
N 0.49533424 1.787296 -0.08867714
N -0.5552567 -1.5683023 -0.039352242
N 0.52458787 -1.6196622 -0.80710906
C -0.7999564 -0.30804256 0.41275015
H 0.4041677 2.1916893 0.8321496
H -1.0751545 -2.414226 0.13386548
H 1.4102178 1.9843786 -0.47426522
H -1.6439855 -0.059849992 1.0352153
