10

O 1.50911438 1.62807269 -1.29817015
C -0.07252085 -0.91377795 0.70025252
C 0.76131914 0.70010750 -1.12288976
C 0.01229238 0.46712934 0.14670021
N -1.20447206 -0.33814878 0.00065278
H 0.42234070 -1.73484751 0.18587755
H -0.10562082 -1.00555302 1.78381818
H 0.57250403 -0.07283222 -1.89690119
H -1.92118706 -0.02471953 0.64736004
H 0.02623030 1.29456927 0.85330004
