11

N -1.017656 -2.0491917 -0.91869324
C 0.08856018 0.92510676 0.37895057
O 0.069115184 -0.36798683 -0.14888193
N 1.2091192 1.6964979 -0.007275058
C -1.1666268 -0.8196828 -0.4299658
N 1.0374137 1.2185032 1.3905079
H 0.9744439 2.6856837 0.010585999
H 1.6820419 0.4347728 1.4707422
H -1.8423163 -2.5516715 -1.1969751
H -0.91052926 1.3436646 0.48182228
H -0.123565815 -2.5156965 -1.0308177
