11

N -0.69853926 0.40317976 1.9835188
C 0.021265293 -0.26279053 1.0149013
O 0.7369817 -1.2131138 1.2462674
N -0.121383406 0.28305584 -0.25273293
C 0.524308 -0.23190278 -1.363831
N 0.4038552 0.35231373 -2.4852161
H -0.72396505 -0.08711182 2.865025
H -1.5494816 0.88099176 1.7240546
H -0.6203778 1.1509987 -0.39340103
H 1.0955837 -1.135013 -1.1417842
H 0.9317532 -0.14060783 -3.1968014
