11

N -0.06418752 -0.08647741 2.03488449
C 0.10120320 -0.95869488 0.93643804
C 0.01837128 -0.26661693 -0.21983896
N 0.05256876 -0.68573443 -1.52036001
N -0.24162787 1.10174013 1.66061718
C -0.22211453 1.14975272 0.19784337
H 0.26005630 -2.01451507 1.11040155
H -1.18429011 1.53820698 -0.15469232
H 0.41158664 -1.61264634 -1.69453728
H 0.30825138 -0.00720836 -2.22031570
H 0.56018233 1.84219316 -0.13044033
