10

N -0.3206872 -1.0035899 -1.509057
C -0.0756904 -0.44150564 -0.26914635
N -0.035539012 -1.1722584 0.81651217
O 0.31188715 -0.30237374 1.8398062
C 0.45246622 0.9228908 1.3359272
C 0.22507654 0.929742 0.0025270092
H -0.8861942 -0.43163133 -2.1187918
H -0.6706134 -1.9505687 -1.4491612
H 0.7232149 1.694521 2.0430572
H 0.27607945 1.754774 -0.6916735
