10

N -0.50348809 -0.78064887 -1.33729617
C -0.04697372 -0.44560133 -0.10132718
N 0.23943456 -1.30638204 0.80093991
O 0.75702381 -0.47657389 1.92882785
C 0.76439565 0.79788558 1.72220054
C 0.23567687 0.96644132 0.31770719
H -1.00074072 -0.08281443 -1.86345103
H -0.79229815 -1.73640844 -1.47142477
H -0.64766363 1.61494349 0.31369872
H 0.99463348 1.44915869 -0.30987513
