10

N -1.0867661 -1.0186598 -0.65768194
C 0.028040318 -0.3087994 -0.33895567
N 1.1561788 -0.47048485 -0.92052287
O 2.029629 0.5630689 -0.29007635
C 1.4667108 1.2847209 0.6206034
C 0.04153293 0.7891639 0.6826314
H -1.822467 -1.0764587 0.02530817
H -0.9594012 -1.8224641 -1.2514453
H -0.6472072 1.6056731 0.43395388
H -0.20625007 0.45424023 1.6961852
