10

N 1.1810861 0.6467039 -0.5957586
C -0.024070106 0.20742357 -0.41373017
N -1.0727547 0.5106849 -1.2527288
O 1.9259872 0.21739338 0.5115001
C -0.07995798 -0.5780755 0.8084465
C 1.2304573 -0.5949816 1.3384817
H -0.9137761 -1.1649908 1.1699132
H -1.7630935 -0.21741468 -1.3613197
H 0.30109933 0.052383572 1.9261433
H -0.78497744 0.92087317 -2.1309476
