11

N 0.94854087 1.146263 1.1221706
C 0.119604886 0.32500324 0.35631257
C -1.2039728 0.12550241 0.3115917
O -1.5099926 -0.72932607 -0.73731345
C -0.34771726 -1.0904459 -1.3593707
O -0.27519155 -1.8077681 -2.32037
N 0.6638514 -0.46674675 -0.65742266
H 1.6121314 0.62058675 1.6797652
H 0.41752288 1.760051 1.7245389
H -2.0226665 0.49759182 0.9040143
H 1.5978897 -0.38071123 -1.0239165
