11

C 0.1914366 0.4523617 -1.5412446
C -0.5036647 -0.15159452 1.5544002
C -0.04861492 -0.9193428 -0.99385667
C -0.10848102 -0.4722219 0.19473056
N 1.1828699 1.2508796 -1.0860518
O 1.5383517 1.0735956 0.08976797
H -0.35041016 0.8068297 -2.414078
H -0.5726994 0.9355779 1.660778
H 0.27190557 -0.49587193 2.2457914
H -0.13861053 -1.8618284 -1.5164031
H -1.4620829 -0.61838484 1.8061656
