10

O -1.1864035 -0.15276898 0.867025
C -0.009325441 0.60400045 1.0741255
C 0.45524564 -0.0125997085 -0.7954084
O 0.33896178 1.2756867 -0.1040724
C 0.09005183 -0.71983016 0.5168345
O -0.3927436 -0.13390736 -1.8586298
H 0.34809136 -1.6975307 0.9034039
H 0.16712596 1.0613623 2.0400012
H 1.4783967 -0.15613145 -1.1465626
H -1.2894006 -0.06828104 -1.4967166
