9

O -0.09217766 -1.64875988 0.44466243
C -0.60663586 0.48554032 -0.51171141
C 0.42513061 -0.51692268 -0.18004844
C 2.27757703 0.58812132 1.29788190
C -1.47804535 1.26886370 -0.77046217
N 1.44758969 0.10318725 0.62038343
H -0.62896766 -1.37019204 1.19952114
H -2.24864171 1.97062492 -1.00745820
H 0.90417066 -0.88046294 -1.09276858
