9

O -0.116983354 -0.8635324 1.4714813
C 0.5117616 -0.27822998 0.37556714
C -0.33754537 -0.24542093 -0.83152676
C 1.3078654 2.144519 0.9530307
C -1.0582952 -0.24676096 -1.7909119
N 0.95738006 1.0563464 0.67719626
H 1.403094 -0.88381577 0.19256078
H -0.9745474 -0.43615308 1.6037161
H -1.69273 -0.24695244 -2.6511137
