13

C -0.5478364 0.026706668 1.7072014
C 0.026031718 0.16937348 0.33166006
N 1.1376892 0.786458 0.23073868
O 1.5583183 0.8731708 -1.1090549
C -0.71748084 -0.4150495 -0.85650676
O 0.061930913 -1.3120154 -1.6101377
H 0.08540249 0.5273331 2.441717
H -1.5551604 0.45695966 1.7496982
H -0.6374526 -1.0331501 1.9685059
H 2.4156184 1.3026013 -1.026939
H -1.0989839 0.414864 -1.4709857
H -1.5839181 -0.97834444 -0.49185684
H 0.85584104 -0.8189078 -1.86404
