13

C 0.37309892 0.29170688 1.20419845
C -0.10371108 0.03760089 -0.20422305
N -1.00790077 -0.87650619 -0.36286468
O 0.68147698 -0.88877559 1.89456519
C 0.42880638 0.78850666 -1.37957143
O -1.53849236 -1.59780241 0.54882960
H -0.40194857 0.87957395 1.72549344
H 1.28225898 0.90029581 1.16535642
H -0.10087831 -1.45505811 1.77495612
H 0.29826110 1.86868655 -1.23626806
H -0.07826823 0.50537054 -2.30676460
H -1.33506848 -1.05672735 -1.31926609
H 1.50236526 0.60312813 -1.50444098
