13

C -1.2147588 0.13336992 -0.2799949
C 0.8871818 -1.4679854 -0.26819527
N 0.84702975 0.6876768 0.7842154
O 0.27449518 1.8991745 1.1472338
C 0.21348779 -0.19069752 0.11456406
O -1.299725 1.34882 -0.97278905
H 0.30813923 -2.3232527 0.101946294
H -1.8256556 0.13400063 0.6374575
H -1.588504 -0.6600028 -0.9348336
H 0.9348746 -1.5507991 -1.359739
H -0.91316056 2.009194 -0.37470344
H 1.4773545 1.4989331 1.2656417
H 1.8992411 -1.5184308 0.13919635
