13

C 0.87229836 -0.0018120098 0.95576245
C 0.2870148 0.3059725 -1.5914894
N -1.3769811 -0.023000501 0.13853437
O -1.8637398 -0.21834528 1.3038191
C -0.124686025 0.092887044 -0.17234348
O 0.6319721 -1.0925817 1.8029383
H 1.8744165 -0.12504372 0.5326379
H -2.0610147 0.03763942 -0.6247761
H -0.5771304 0.40466148 -2.2551847
H 0.90007913 -0.530656 -1.9474264
H 0.8923843 1.216753 -1.6829945
H 0.8559627 0.9546608 1.5061511
H -0.31057563 -1.0211349 2.0343711
