11

N 0.4596636 0.3416442 -2.925374
C 0.3581863 0.6312832 -1.8127065
C 0.20853756 0.96736705 -0.3924231
C -0.59834033 -0.088018805 0.34258664
C 0.060225025 -1.1824108 1.0530325
O -0.47296587 -0.06220248 1.7493292
H -0.28026724 1.9439828 -0.30749378
H 1.1985807 1.0549943 0.06828306
H -1.6144105 -0.23534414 -0.023188401
H -0.46678263 -2.1242673 1.2041515
H 1.1475734 -1.2470279 1.0438027
