11

N 0.6163634 1.7385079 -0.49678114
C 0.20280778 -1.558036 -0.05756325
C -0.5869183 -0.3318999 -0.15519263
C -0.09361907 0.9586832 0.46356988
C 1.1887128 2.332107 -1.3296974
O -0.9334705 -1.3390133 0.7698144
H 0.09224228 -2.3335376 -0.81222796
H 1.1620071 -1.5371412 0.45935428
H -1.2765845 -0.21256977 -0.9922879
H -0.9354067 1.5488291 0.84072393
H 0.5638656 0.7340703 1.3102881
