11

C 1.1228325 0.7906172 -1.4910856
N 0.39768198 1.7003331 -1.7276939
C 0.4376611 -0.5971555 1.2169924
C -0.63965434 -0.017867988 -0.8651068
N -0.6578355 0.021106355 0.48378074
H 1.3944321 -0.1432684 0.9245825
H -0.3230136 -0.9607542 -1.2995685
H -1.0225987 0.8757515 0.8719043
H 0.2668153 -0.4848492 2.2893078
H 0.47056112 -1.6644224 0.9760091
H -1.446882 0.48050955 -1.379122
