11

C -0.69058242 0.86540019 -0.17003829
N 0.41035382 0.48038994 0.65443003
C 0.58166978 -0.96257445 0.77766583
C -0.44779275 -0.08955961 -2.59145784
N -0.60602429 0.37011845 -1.52742087
H 0.76362777 -1.46395551 -0.18240786
H -1.62090595 0.48123485 0.26385785
H -0.31844110 -1.39523789 1.22876914
H -0.75608206 1.95476935 -0.22154138
H 1.26087609 0.91949914 0.32257909
H 1.42330110 -1.16008435 1.44556425
