10

O -1.6890105 -0.5922363 -1.5257221
C -0.805531 -0.26670757 -0.7780019
C -0.3747788 -0.6186136 0.6599084
C 0.7716625 0.3969473 0.44345626
N 0.24403301 0.6071946 -0.9014373
H -1.1082532 -0.34902796 1.4225389
H -0.06548753 -1.6569121 0.7900647
H 0.72887206 1.2853432 1.0804499
H 1.7802436 -0.027364243 0.4637664
H 0.51824975 1.2213767 -1.6550235
