10

O 0.35608506 0.21107903 1.9449223
C -0.71340674 0.18792664 -1.5713103
C -0.17520173 0.64431953 -0.32319072
C 0.37602827 -0.2625947 0.6592838
N -0.2998744 -0.9515617 -1.89482
N 0.8733495 -1.4023831 0.38110685
H -0.2999406 0.91302794 2.0259352
H 0.067291394 1.7003514 -0.22388864
H -1.2377324 0.87792724 -2.2418492
H 1.0534016 -1.9180925 1.2438105
