14

C -0.8129305 -1.2859936 -1.3212774
N 1.377672 0.7473077 -0.0010646696
C 0.5393671 1.6062088 0.8615652
O -0.6868802 1.270895 0.17328417
N 0.3174411 0.50324833 1.8259709
C 0.10287684 0.050883386 0.42873946
N -0.3577386 -1.2086112 0.05833234
H 0.04436916 -1.1251547 -1.9863468
H 0.741263 2.6439173 1.1192852
H 1.30248 1.0574486 -0.97384346
H 1.2206416 0.14369038 2.1469333
H -1.0032551 -1.5693573 0.74589413
H -1.5854311 -0.54638374 -1.5670489
H -1.1998754 -2.2880993 -1.5104237
