14

C -2.3937466 -0.07473658 0.9731061
N -1.3502334 0.13482328 -0.013483424
C -0.0357388 0.035574965 0.34571108
O 0.35534054 -0.0787398 1.4933443
N 0.8424763 0.103826664 -0.7362113
C 2.2158527 0.0045353617 -0.592012
N 2.9639213 0.11081675 -1.6132774
H -2.0400271 0.2924463 1.9372947
H -2.6524928 -1.1353757 1.0805066
H -3.287423 0.4823369 0.6808095
H -1.5945429 -0.016030101 -0.98051536
H 0.51774037 0.30181953 -1.6727924
H 2.5227127 -0.16570172 0.44154882
H 3.936161 0.0044041364 -1.3440294
