9

N -1.25747211 0.72909319 -0.56233609
C -0.56612110 -0.14894104 -1.40775499
C -0.71478375 -0.46368217 0.13478469
C 0.46365398 -0.25612797 0.77561300
N 1.47191157 -0.01435449 1.41098165
H -0.79089620 1.59775358 -0.27318825
H 2.35283962 -0.43421958 1.13060406
H -1.39332176 -1.23336738 0.48819658
H 0.43418972 0.22384592 -1.69690075
