9

N -0.48402604 1.4558775 0.27417952
C 0.24808678 -0.81881243 0.38749352
C -0.8200507 0.010110414 0.267392
C -0.6645425 0.9276149 -1.0111204
N 1.2147272 -1.529764 0.584687
H 0.28559986 0.78084373 -1.557824
H 1.5428586 -2.1444304 -0.15385719
H 0.47444558 1.6336826 0.5991225
H -1.7970986 -0.31512207 0.6099272
