11

C -0.57919704 0.14436197 -0.66232330
C -0.20938156 1.59308151 -0.81263664
O 0.33637670 -0.82418929 -1.24917173
C 0.20153532 -0.77375233 0.11991367
C 0.60985289 -1.38987716 1.18343185
N 1.07898818 -1.85290283 2.23364006
H -0.76484543 2.19605397 -0.08756558
H -0.46663683 1.94272604 -1.81772711
H -1.62567881 -0.11261726 -0.83349813
H 0.86220045 1.73923086 -0.64796988
H 0.55678653 -2.66211514 2.57390670
