11

C 0.46866345 1.4114649 -0.5019489
C 0.7447628 -2.0764825 -0.2724529
O 0.16931984 -0.21502623 1.4169749
C -0.020996332 -0.96704173 0.2991079
C -0.40336558 0.41638622 0.21255432
N -0.41063845 -2.5502687 0.072995
H 1.4837226 1.0225791 -0.60530776
H -1.1470397 -1.6959542 0.46154475
H -1.4497572 0.68645895 0.35578617
H 0.5015597 2.3502157 0.05912345
H 0.06376885 1.6176684 -1.498377
