11

C 0.37645492 1.7389183 -0.2767172
C -0.0008711278 -0.8034078 -0.09068415
O 0.56043684 -0.5432605 -1.3204718
C -0.08758072 -1.7563739 0.7820936
C -0.29268447 0.4629148 -0.70358187
N -0.08429309 -2.581238 1.70784
H 0.53287435 2.3879764 -1.1444124
H -0.2584333 2.270673 0.43882304
H 1.3428503 1.5322806 0.19247745
H -1.254974 0.5614942 -1.2083038
H -0.83378 -3.269977 1.6229373
