11

C -0.82328355 0.7476706 -0.83468014
C 0.50022066 0.6246632 -0.13021883
O 0.4939031 0.6836737 1.2872515
C 0.8697486 -0.5439139 0.68979585
C -0.052297737 -1.6570086 0.8564981
N -0.7712758 -2.5545375 0.96809834
H -1.1536483 1.7906721 -0.83268833
H -0.72809017 0.4216123 -1.8755136
H -1.5877292 0.13965079 -0.34361622
H 1.3343096 1.1629821 -0.5834816
H 1.9181432 -0.81546444 0.79855484
