11

N -1.0530069 -1.2347564 0.9067083
C -0.5319774 -0.4662098 -0.023545086
O -0.24283275 -0.8019491 -1.2058618
C 0.099168345 0.92542505 0.19932862
C 0.97656083 0.5982331 -0.99047303
O 0.8762927 1.1385913 1.2097328
H 1.8491862 0.01039168 -0.7162735
H -0.70050573 1.6632326 -0.08170698
H -1.311321 -2.1992512 0.74312234
H -1.0288112 -0.8525629 1.8432078
H 1.0672469 1.2188561 -1.8842396
