11

N 0.51332918 -0.44359414 2.05068622
C -1.02919686 0.12802402 -1.02248510
O 0.29528648 -0.02183628 -1.42884233
C 1.08995635 0.15453505 -0.26938502
C 0.16438013 -0.22475292 0.86195438
O -1.09445960 -0.27535426 0.34793965
H 1.41870158 1.19639335 -0.15347446
H 1.96173091 -0.50017437 -0.31688768
H -1.36721998 1.17095249 -1.09329238
H -0.28688736 -0.65581173 2.64106254
H -1.66562070 -0.52838126 -1.61727632
