11

N 1.6182333 -0.06685552 -0.2937265
C 0.47829556 0.17893316 -0.9899711
O 0.36815202 0.14162451 -2.1981378
C -0.71496475 0.46687895 -0.11275542
C -1.160947 -0.5194845 0.87395436
O -0.46909025 0.6552368 1.2733898
H 1.6604639 0.18519057 0.68066496
H 2.4736853 -0.18122572 -0.8172227
H -1.4432311 1.1412617 -0.5597689
H -2.2128825 -0.5577882 1.1532542
H -0.59771436 -1.4437718 0.9903186
