12

C -1.1214373 -1.014679 -1.7002573
N -1.0000132 -0.5842544 -0.32221982
C 0.055599995 0.021447157 0.009869571
N 0.24491352 0.47049347 1.3113037
C 1.3530675 1.1494327 1.74701
O 1.5049152 1.5375867 2.8807893
H -2.0004683 -0.5384298 -2.1489668
H -0.24496122 -0.78513 -2.32395
H -1.2950305 -2.0956788 -1.7259845
H 0.8959635 0.24720477 -0.6585931
H -0.49063116 0.2875714 1.984978
H 2.0980818 1.3044361 0.94602084
