12

C -0.84948146 -0.30616722 0.5210167
N -0.50860685 0.7245211 -0.31791636
C -1.478529 1.6000475 -0.79229736
N 0.08284974 -1.1605127 0.9452067
C 1.4781677 -1.04648 0.50707126
O -1.228095 2.5315304 -1.515073
H -2.4836082 1.3310817 -0.43174627
H 1.9304118 -0.15831509 0.96618277
H 2.027078 -1.9243248 0.8489489
H -0.9914714 -1.5640684 0.45660615
H 0.44240853 0.93967515 -0.6041865
H 1.5788765 -0.9669875 -0.5838131
