12

C 0.7062386 0.87831104 -0.004168639
N 0.3125686 0.4808514 -1.21096
C -0.58811194 -0.61171025 -1.5789279
N 0.16199397 0.12267024 0.9953045
C 0.46960697 0.41151473 2.3164556
O 0.025463827 -0.21533892 3.2465699
H -0.6750572 -0.6448787 -2.6668496
H -1.5885369 -0.45568097 -1.1580133
H 1.1561955 1.2688079 2.397399
H 0.68814796 1.0131831 -1.9796976
H -0.4725048 -0.67151785 0.8796358
H -0.19600473 -1.5762117 -1.2367481
