12

C -1.03833190 -0.83497894 -1.19906436
N 0.29052831 -0.22951620 -1.28773323
C 1.00440569 0.37813141 -0.34410242
N 0.35603919 0.41143191 0.85783507
C 0.96507307 1.01603904 1.94734188
O 0.44990557 1.07960909 3.03632422
H -1.79286424 -0.08919989 -0.92183002
H -1.30404333 -1.24516541 -2.17547500
H -1.04965759 -1.65242520 -0.46916610
H 0.72998254 -0.27455102 -2.19340770
H -0.56764931 0.02116259 1.06079338
H 1.95661182 1.41946292 1.68848418
