11

N -1.11862438 0.54822445 1.94989347
C 0.78954895 0.06399028 -1.01973819
O 0.17219888 1.03552577 -1.83429374
C -0.23630145 -0.66447117 -0.18739170
C -0.56359072 -0.21933493 1.13841744
O 0.24919084 -1.28680512 1.07858640
H 1.55528792 0.48516472 -0.35163139
H 1.28473626 -0.63234057 -1.70249511
H -0.29150343 1.65390005 -1.25666330
H -0.94973977 -1.28103238 -0.72905240
H -0.89120346 0.29717898 2.91436847
