10

C -0.017406829 0.52295786 1.1847229
C -0.19193408 0.18849055 -1.2683052
N -0.91747737 -0.41061276 1.3252288
C -0.45879456 -1.0516521 0.18111454
N -1.0888208 -0.7262327 -1.0151663
C 0.6567632 0.47044885 -0.11346792
H 0.1895018 1.2612677 1.9585115
H 0.29311606 -1.8391749 0.23195969
H -0.10788803 0.67327046 -2.2400095
H 1.6429406 0.91123724 -0.2445885
