11

C 0.8032156 0.11757323 1.5803583
N 0.9759393 -0.7677911 -0.58535
C 0.117438704 -0.66015136 -1.6352507
N -0.9824727 0.011119877 -1.5062336
C -0.9374134 0.47691953 -0.15176252
N 0.35646957 -0.0637432 0.3828664
H 1.75269 -0.32633978 1.8477767
H 0.2084176 0.70631397 2.2708144
H -1.7619699 0.08576096 0.45139042
H -0.9227781 1.5694033 -0.08898462
H 0.3904634 -1.1490654 -2.5656247
