11

C -0.54616975 0.57131828 -1.58080061
N 0.38020299 -0.35531348 0.08317721
C 1.13057617 -1.08050651 0.84309805
N 0.41801186 -0.33472958 -1.26404808
C -0.67427482 0.59947589 0.56143574
N -1.22016983 1.15487903 -0.64152625
H -0.71982887 0.78027222 -2.63215971
H -0.20833219 1.36013839 1.19544368
H 1.00290403 -1.00713346 1.91801487
H 1.85602025 -1.73369064 0.37709978
H -1.41893982 0.04528967 1.14026524
