11

O -0.52352554 0.23683132 1.2941473
C -0.10954017 0.8743418 0.084474735
C -0.33285534 -0.015130413 -1.1110766
O 1.3042363 -1.0907409 1.2171066
C 0.28564793 -0.732789 1.7451515
N 0.36638948 0.1714619 -2.1527207
H 0.0820482 -0.4755223 -2.8860936
H -0.13185659 -1.1403468 2.6765094
H -0.74448735 1.761283 0.00013721663
H 0.94140995 1.1678145 0.13606171
H -1.1374668 -0.7572034 -1.0036979
