11

O -0.91102288 0.12148546 1.07715555
C -0.30779116 0.82995477 -0.00695419
C -0.08343789 -0.64792163 1.79926764
O 1.09507452 -0.77779372 1.60248097
C 0.01168065 -0.09045369 -1.15637122
N 0.92665323 0.24030990 -1.97012983
H -0.61789644 -0.98919136 -1.23056959
H -1.06087814 1.55761079 -0.32367513
H 0.59926296 1.34477078 0.31785482
H -0.65747621 -1.13354422 2.60082339
H 1.00583108 -0.45522706 -2.70988218
