12

O 2.4188156 -0.24296366 -0.55667967
C -1.8866265 0.023229657 0.5978587
C 0.033875547 -0.19500476 -0.1914093
N -1.2523667 -0.6195245 -0.35539314
N 0.2191331 0.6626665 0.79292697
C 1.1645362 -0.5848846 -1.0901407
N -1.0227009 0.792463 1.2894111
H 1.0010861 -0.11374808 -2.0731835
H -2.943547 -0.03233901 0.821556
H -1.1918129 1.3936254 2.0799851
H 1.1499285 -1.668538 -1.2448312
H 2.3096788 0.5850182 -0.070100285
