12

O 0.3999396 1.178036 -2.170809
C 0.7515106 1.2885401 -0.81668204
C 0.21092708 0.16891639 0.01879145
N -0.750087 -0.6115804 -0.42942134
N -0.9785704 -1.4198232 0.62848085
C -0.16147284 -1.0935216 1.6441394
N 0.60962945 -0.086046405 1.2991626
H -0.48725298 0.80070925 -2.2085478
H 0.40069458 2.2387023 -0.38327733
H 1.8454318 1.2880594 -0.7484179
H -1.6753715 -2.144888 0.570536
H -0.1653784 -1.6071038 2.5960453
