11

O 0.23599516 0.14632736 2.3625307
C -0.54139763 -0.68430036 -0.8549232
C -0.034581576 0.07432064 1.179525
N -0.87492424 -0.7858836 0.51889783
C 0.43866637 0.9787171 0.10033886
O 1.758459 1.0478443 -0.060424417
H -1.6165628 -1.319456 0.9458416
H -0.2849563 0.68649906 -0.877858
H -1.3803034 -0.7367965 -1.5541979
H 0.33827126 -1.2447022 -1.1775835
H 1.961334 1.8374302 -0.5821471
