11

O -1.8394119 -1.4318781 -0.28458875
C 0.3342387 1.3580647 0.5278828
C -0.8617104 -0.6976962 -0.22994055
N -0.7950132 0.4434834 0.4967648
C 0.25391588 -1.0027773 -1.1887579
O 0.9936287 -1.9364154 -0.62194014
H 1.6702884 -2.2058086 -1.2578763
H 1.2438134 0.8095207 0.26071754
H 0.21212536 2.187028 -0.1759902
H 0.45357895 1.7613828 1.537008
H -1.6654538 0.7150964 0.9367205
