12

N 0.85717094 -1.743097 0.56237805
C 0.26510265 -0.54453 0.1696968
C 0.93035394 0.39380825 -0.62659365
N 0.34977072 1.5086961 -1.0613091
C -0.9188692 1.696549 -0.69814575
N -1.65406 0.88228965 0.055535957
C -1.0556223 -0.22840841 0.48426947
H 1.8645502 -1.7321934 0.6084412
H 0.44878954 -2.1737268 1.3801122
H 1.9657607 0.2334546 -0.92273736
H -1.3999267 2.6046622 -1.0537351
H -1.6530201 -0.8975043 1.1020875
