12

N 0.64843327 0.073224954 1.1246549
C -0.6077388 -1.1740552 -0.358873
C 0.15138529 0.06850926 -0.2276291
N -0.38531765 1.3860264 -0.67591506
C 0.8454002 0.75246996 -1.3754582
N -0.478789 -1.895083 0.70977867
C 0.28627843 -1.0725522 1.5732679
H -1.1223193 -1.5107437 -1.2529924
H 0.532824 -1.4302926 2.5673606
H 1.6961046 1.3152525 -0.961712
H -1.2724513 1.3865844 -1.16102
H -0.29380986 2.1006596 0.03853783
