12

N -1.0097442 -1.0379173 -0.65898097
C 1.0374743 -0.11140722 -0.24561062
C -0.15049256 0.5834491 0.42472783
N 1.2098857 -1.4782698 -0.29133585
C -0.025639854 -1.9175951 -0.45917344
N -0.44625044 1.5327455 1.2809297
C -0.37735403 0.2524681 -0.90572685
H -0.25820807 -2.980056 -0.41258428
H 1.912252 0.5414979 -0.25991154
H -0.66630065 0.8598339 -1.7651299
H -0.13115053 1.4795378 2.2397768
H -1.0944717 2.275713 1.053019
