12

N 0.27519968 -0.65599014 1.80169528
C 0.72657144 -0.83226520 0.42879172
C 0.22679001 0.30435472 -0.43968023
N 0.77148036 1.19543159 -1.34812181
C -0.82367034 -0.05038996 1.61301781
N -1.13467933 0.19977686 0.22467790
C -0.46791307 -0.92408389 -0.49208460
H 1.66949879 -1.32848189 0.22709409
H -0.90051119 -1.57345328 -1.24231710
H 0.92723411 2.11655031 -0.95374666
H 0.23968480 1.26892022 -2.20587948
H -1.50968495 0.27963079 2.38655330
