12

O -0.49198613 -1.7338499 -0.35565996
C 1.0412524 -0.82686085 -0.14354822
C -0.3380796 1.205734 -0.66179144
O -0.32930946 0.22612819 1.5035402
C 0.49107623 0.4713838 0.38238946
O -1.5130273 1.4526849 -0.48601857
H 0.372618 -2.0757594 0.16833644
H -0.9919313 -1.3245953 0.38258213
H 1.3272004 -0.74219805 -1.1995889
H -1.1173216 0.78130025 1.3737566
H 0.18248317 1.4714463 -1.5977291
H 1.3670253 1.0945857 0.63373154
