12

O 1.0415952 1.1019596 -1.0118281
C 0.6006271 1.0163136 0.3198874
C -0.4468736 -0.08832423 0.44874647
O -1.4897652 0.18378255 -0.4490494
C 0.15892486 -1.436963 0.113652624
O -0.32987416 -2.140686 -0.73907286
H 0.23401685 1.1379668 -1.5467682
H 0.15945849 1.9585257 0.67227733
H 1.4736233 0.7939422 0.94525003
H -0.80835295 -0.13342337 1.4901992
H -1.6384012 -0.642731 -0.9409144
H 1.045021 -1.7503631 0.6976199
