10

O -0.6489435 -1.4614948 -0.8697871
C -0.85032994 -0.18371007 1.1534156
C -0.11115551 -0.63084275 -0.022860033
N 1.2608907 -0.31877032 -0.17177038
N -0.8868261 1.087289 0.9890107
C 1.0127003 0.9321136 -0.41074517
N -0.30896074 1.3456696 -0.29298633
H -1.2200204 -0.7469887 2.0012965
H 1.7711846 1.6137989 -0.79129916
H -0.01853933 -1.637064 -1.5842746
