10

O 0.49819624 1.418087 -1.4930358
C -0.22584541 0.104075365 1.5501868
C 0.21817173 0.32055208 -0.8041081
N 0.06999415 -1.3310786 0.3000015
N 0.73959833 -0.009065482 0.50402623
C -0.40474346 -0.8532327 -0.9867856
N -0.8258068 -1.0165162 1.3989611
H 1.2203025 1.8805606 -1.0429293
H -0.96986437 -1.3904781 -1.7295183
H -0.32000282 0.877096 2.3032012
