12

O -1.2607768 -0.6590357 1.2328511
C 0.1274401 -0.48489693 1.183893
C 0.58518475 0.7036698 0.3438017
O 0.855281 0.40119419 -1.0446111
C -0.1502572 0.026018905 -1.8247726
O -1.2889016 -0.18972233 -1.4875968
H -1.5812129 -0.63702613 0.31674343
H 0.6608064 -1.3838538 0.83303314
H 0.45267817 -0.2943813 2.2134335
H 1.5518959 1.0735359 0.6934796
H -0.15986079 1.5020444 0.3993908
H 0.20772263 -0.057547204 -2.8596458
