12

O 0.26326942 -2.02963224 0.29522681
C 0.39549558 -0.82021637 -0.37370393
C 0.89142468 0.35748966 0.48276274
O 0.22972927 1.47381268 -0.06967838
C -1.03559921 0.98141824 -0.42684822
O -0.85231996 -0.34458153 -0.86551864
H -1.71971044 1.01003493 0.43776741
H -0.35793869 -1.90592370 1.02447505
H 0.59831399 0.20622965 1.53634598
H 1.96944269 0.51928260 0.42553000
H -1.43837530 1.58211246 -1.24608655
H 1.05626763 -1.03002658 -1.22027230
