10

O -0.7614561 -0.70069313 1.6090094
C 1.0256691 0.22888428 -0.6804088
C -0.015405327 -0.6515478 -0.7660588
C -0.57942826 -0.05396241 0.4765375
N -0.72928655 1.275533 0.48971137
N 0.8169496 1.1826185 0.29582608
H -0.2342971 -1.5141919 -1.373354
H 1.9936807 0.20208429 -1.1810184
H -1.1186038 1.6231129 -0.38644218
H -0.3978223 -1.5918376 1.5161979
