10

O -0.24192443 -0.17409389 2.0257792
C -0.106172696 -0.03583458 0.68995404
C 0.7039249 -0.6139564 -0.26019925
C 0.29430896 0.011338403 -1.4640187
N -0.6728204 0.8893699 -1.2764579
N -0.90360224 0.84480774 0.055343997
H 0.39238563 -0.83154064 2.3368769
H 1.4652424 -1.3659914 -0.11317868
H 0.67840284 -0.15559825 -2.4616463
H -1.609745 1.4314991 0.46754673
