10

O 0.33058733 0.74529477 -1.04812580
C -1.54845835 0.46441800 0.29069567
C -0.16368933 -0.00113672 -0.01061058
O 1.61707711 0.25344965 -1.41409627
C 0.43153555 -0.97950707 0.66240209
O -2.21041887 0.01833135 1.19354638
H 1.42898950 -1.32544550 0.41896183
H 2.16725714 1.01272431 -1.17175793
H -1.92975324 1.25029830 -0.39356843
H -0.12312690 -1.43842719 1.47255261
