10

O 0.8219316 0.9317862 -1.7104193
C -0.018238762 0.8136924 -0.6046275
C 0.20602135 -0.48946756 0.12230007
O 1.0230275 -1.3012341 -0.25715563
C -0.61709446 -0.78599715 1.3622354
O -1.4403775 -0.019861586 1.7903923
H 1.3493888 0.1206644 -1.7472434
H 0.14042057 1.6350383 0.11169439
H -1.0791812 0.8609464 -0.89560676
H -0.38589796 -1.7655674 1.82843
