10

O -2.1494808 -0.81531537 -1.0128345
C -0.10594601 0.0064569027 -0.12506726
C -1.4476998 0.13241087 -0.76455474
O 1.7215799 1.1637931 0.6004928
C 0.44287106 -1.1649224 0.17678969
O 0.39989024 1.2639123 0.07702882
H 1.5873272 1.5432496 1.481352
H -0.13028346 -2.057579 -0.045156427
H -1.7468195 1.1729712 -1.0073975
H 1.4285612 -1.244977 0.6193472
