11

N 1.038835 0.13199398 1.7681297
C 0.37290868 0.058797386 0.54013133
C -0.9703064 0.12710842 0.2732135
N -1.0545739 0.06468717 -1.1105933
C 0.20742527 -0.024525896 -1.585301
N 1.0956839 -0.03819933 -0.6197402
H 2.0089567 -0.124807686 1.6449425
H 0.6191923 -0.43440324 2.4927418
H -1.8445581 0.22510907 0.8977713
H -1.8986228 0.09168365 -1.6569511
H 0.4250593 -0.077443495 -2.6443443
