11

N -0.26928593 0.30744284 1.28580058
C 1.13109009 0.25043937 1.34112854
C -0.52061472 0.01601381 0.04519480
N -1.75967478 -0.09488892 -0.46917600
C 0.75614040 -0.23473994 -0.72472907
N 1.79131472 -0.04016736 0.27999634
H 0.79518866 -1.25214581 -1.13002568
H 1.61846487 0.45970608 2.28884913
H -2.52872232 0.21547060 0.10691051
H -1.90085285 -0.09239038 -1.46607714
H 0.88695183 0.46525974 -1.55787178
