12

N -1.6493863 0.31450915 0.5695615
C 0.27877894 0.15508538 -0.6739257
C 1.263803 -0.6455663 -1.388488
C -1.1045219 -0.4554374 -0.44053861
N 0.5201953 0.13000622 0.7930017
C -0.6702514 0.7715768 1.2878786
N 2.0498855 -1.256268 -1.9743959
H -0.7106497 1.1759284 2.2914848
H 1.4368427 0.3599821 1.1699187
H 0.2730462 1.1951802 -1.0283666
H 0.05291923 -1.0140688 0.6697826
H -1.7406614 -0.73092777 -1.2759131
