12

N 0.8825429 0.25977182 -1.3986243
C -0.17840414 -0.5062128 -1.4290441
C -0.92004323 1.2110822 0.9494327
C 1.2548743 0.613318 -0.17390308
N -0.37813202 -0.95794135 0.03088664
C 0.1672131 0.21186286 0.788274
N -1.7427616 2.0079882 1.1098257
H 0.1910986 -1.7854298 0.2472888
H 0.5017562 -0.08972579 1.7859247
H -1.3583351 -1.1327037 0.24636649
H -0.31190267 -1.3014307 -2.153385
H 1.8920937 1.469421 -0.003042359
