12

N -1.47748006 2.06669196 1.35896458
C -0.82451068 1.14659658 1.10459066
C 0.03905131 -0.03083120 0.83171296
C 0.02283896 -0.09058356 -1.52365332
N 1.19002419 0.34758402 -1.12496267
C 1.36329500 0.29363144 0.19057296
N -0.56784820 -0.80788095 -0.29405143
H -1.58581939 -0.77091145 -0.28224249
H -0.11927814 -0.63018382 -2.45289892
H 2.11514611 0.89183872 0.68557017
H -0.24226690 -1.78065621 -0.23664371
H 0.08684764 -0.63529578 1.74304156
