10

N -1.5368384 -1.420952 0.74954855
C -0.6806898 -0.64172304 0.2627739
C 0.14153227 0.3332851 1.0101535
C 0.924147 0.96544933 0.1363334
C 0.6381663 0.41836295 -1.2174729
O 1.1074175 0.6951737 -2.276845
O -0.3431055 -0.5504111 -1.0717087
H -1.9692829 -1.995981 0.025814475
H 0.05990709 0.45440024 2.0823538
H 1.6587465 1.742396 0.299049
