10

N -1.3208336 1.094843 -0.94450426
C 0.37537137 -1.2008809 0.94481635
C -0.45703757 0.34002596 -0.29551923
C 1.4810901 -0.3899539 0.418643
C -0.86162215 -0.80008835 0.5443453
O 0.8125623 0.63392687 -0.4154328
O 2.6631224 -0.37644482 0.5014844
H 0.6256922 -2.0340707 1.5947077
H -2.2964938 0.86251646 -0.8316031
H -1.0218514 1.8701265 -1.5169374
