10

N -0.3712629 -1.6572479 -1.0411296
C 0.89767885 0.0976992 -0.5962366
C -0.3556692 1.0634245 1.1167578
C 0.86069095 1.1377431 0.25645918
C -0.3338443 -0.6389202 -0.25299966
O -1.0834683 -0.15804365 0.7001515
O -0.80176103 1.7330679 1.9826441
H -1.0854414 -2.3742087 -1.076608
H 0.72626704 -1.1680601 -1.4850492
H 1.5468099 1.9645461 0.3960104
