11

N 0.29703316 0.30508044 2.000731
C 0.115437865 0.104094006 0.76455665
C -0.63397235 0.8463659 -0.34071064
N -0.4252457 0.08373351 -1.574481
C 0.291769 -0.91646034 -1.2472829
N 0.64663714 -0.991131 0.088208854
H -0.17354819 1.1580062 2.3004973
H -1.7053245 0.9152314 -0.11862325
H -0.2596147 1.8697649 -0.46049678
H 0.62440765 -1.684001 -1.9391382
H 1.2224207 -1.6906841 0.5267389
