10

O 2.4505517 0.40050304 1.2715654
C 0.3993792 -0.20080489 0.2398225
C -0.3343783 1.062449 0.21514845
N -0.24669272 -1.2243072 -0.25019854
O -1.4251335 -0.7934697 -0.71963143
C 1.7515595 -0.4610525 0.8121789
C -1.4585414 0.59033775 -0.50117564
H -0.7350147 1.1412259 -1.2473263
H -2.4536114 1.0119871 -0.6022648
H 2.0518816 -1.5268683 0.7818812
