10

O 0.19512491 1.1186191 -1.894602
C -0.41712478 0.7889417 0.3749627
C 0.0434904 1.5992366 -0.7977164
N -1.4656651 -0.28765947 0.065440916
O 1.6693597 -1.8486347 0.76719385
C -0.29348242 -0.65343595 0.29902092
C 0.52960813 -1.8799424 0.37471128
H 0.24769723 2.6675994 -0.5870658
H 0.01138465 -2.8039777 0.068260446
H -0.52039284 1.299254 1.329794
