10

O 1.712062 -1.7758193 0.8278494
C 1.1522744 -1.4665744 -0.19623856
C 0.19824167 -0.338949 -0.26151523
N -0.39022043 -0.03904344 -1.3925179
O -1.1898654 1.0307996 -1.1209332
C -1.0679989 1.3591949 0.17790179
C -0.19893342 0.5290826 0.79498863
H 1.3157012 -2.0033817 -1.1502314
H -1.6637907 2.2022436 0.49984667
H 0.1325297 0.502447 1.8208498
