10

O 0.7880292 -1.120292 1.6069412
C 0.38292125 0.20419851 -0.8060505
N -0.18673429 0.579152 0.43251732
C 0.022289623 -0.18897483 1.5574766
C -0.9926536 -0.19140433 -1.889392
N -0.4231539 -1.2309442 -1.7308054
H 1.1811973 -0.5099366 -0.6211201
H 0.7305083 1.0392958 -1.4077489
H -0.9329823 1.256232 0.4381004
H -0.56942165 0.16267338 2.4200816
