10

O 1.6669234 -0.13175493 -1.4438055
C 1.1610037 0.78806525 -0.8447989
N 0.27514708 0.6464911 0.18846492
C -0.215787 -0.65738225 0.57433283
C -1.6508292 -0.8156147 0.2835966
N -2.781033 -0.9167646 0.075744264
H 1.3817894 1.8488934 -1.0608455
H -0.14596161 1.4726853 0.5840946
H 0.3583085 -1.3920227 0.0036166513
H -0.049561102 -0.8425958 1.6395998
