10

O 0.25978809 -0.62868517 -0.85631218
C 1.03010130 -1.21620802 0.09025895
C -0.36241884 0.36950050 -0.20477294
N -0.06052830 0.46409952 1.05181797
O -1.56111879 1.11337275 -2.10996484
C -1.30456480 1.23614730 -0.93844180
C 0.84229741 -0.55725924 1.25874044
H 1.62736648 -2.05619994 -0.22699955
H -1.75262202 2.01270304 -0.29277471
H 1.28169952 -0.73747048 2.22844870
