10

O 0.44085616 1.6880559 -0.040530033
C 0.56163156 -0.8180947 -0.063485935
C -0.7736095 1.5987868 -0.060221277
N -0.71523 -0.78497803 -0.012203789
O 2.991484 -1.253854 0.20268798
C 1.7899718 -1.1976894 0.120285176
C -1.4389302 0.2972602 -0.03231871
H 1.0817195 -2.2234588 0.030102583
H -2.5213077 0.19984858 -0.038148865
H -1.4165853 2.4941235 -0.1061671
