10

O 0.03473658 -2.5496628 0.51889014
C -0.23964077 -1.9915229 -0.5105307
O -0.23766646 -0.6671489 -0.6985122
C 0.13529004 0.09613604 0.46308187
C 0.1063905 1.5123409 0.112067096
C 0.08896105 2.6862555 -0.13949436
H -0.53270334 -2.4906912 -1.4457698
H -0.5644139 -0.11934911 1.2772536
H 1.1355491 -0.20718859 0.7899357
H 0.07349718 3.7308314 -0.36692142
