10

O -1.6008048 -1.2510362 -0.8508845
C 0.014769583 0.5131169 -0.05133707
C -0.5566487 -0.678835 -0.26005217
O 0.31310207 -1.4643306 0.43295094
C 1.0308522 -0.22854829 0.78781587
O -0.34214395 1.8192844 -0.24109994
H 0.992371 -0.0794502 1.870001
H 2.0634573 -0.28116316 0.4315636
H 0.24742329 2.2059793 -0.90246284
H -2.1623783 -0.55501735 -1.2164948
