10

O 0.10132372 -1.5661513 1.75017
C 0.091943614 -0.7668635 0.85171264
C 0.20963497 0.6268568 -0.718178
C -0.9777003 0.009980964 0.06113196
N 1.0928013 -0.18021382 0.11945099
H 2.0970159 -0.28030315 0.16074017
H 0.24959539 0.37002566 -1.7802603
H -1.5588071 0.70642823 0.6684781
H 0.33988518 1.7050592 -0.58922493
H -1.6456927 -0.6248193 -0.5240203
