10

O 1.2736608 -0.7631021 1.8077457
C -0.78833115 0.16804487 -0.6541716
C 0.7803284 -0.25567007 0.8016448
C 0.38705966 -0.7227755 -0.5486726
N -0.65880346 0.54469043 0.7478141
H -0.5814682 1.551322 0.90676206
H 0.68341935 -1.6275717 -1.0798283
H -0.76907665 0.9389885 -1.4333782
H -1.687539 -0.44950724 -0.81345344
H 1.3607501 0.615581 0.26553738
