10

N -1.30210340 -0.86381495 -1.03828551
C -0.51642933 -1.60486028 -0.25476433
O 0.37322298 -0.90107740 0.44867573
C 0.47919838 0.52421423 0.35634203
C 1.56513977 0.93723127 1.25246675
N 2.41664104 1.28672970 1.94690745
H -1.99165173 -1.36553833 -1.57547604
H -0.44855956 1.00928147 0.67759024
H 0.72654312 0.83305327 -0.66521065
H -1.30200129 0.14478124 -1.14824527
