10

N -1.319183 -0.6407825 -1.1593751
C -1.208662 -0.7480966 0.091741584
O -0.17870337 -0.21800512 0.7738917
C 0.76589715 0.4741343 -0.032313187
C 1.8206 0.97998625 0.85279864
N 2.6757514 1.4011737 1.5054499
H -2.1606624 -1.1072565 -1.487035
H -1.8774619 -1.2537285 0.7945181
H 0.2872184 1.3080348 -0.55680275
H 1.1952057 -0.1954596 -0.7828735
