11

N 1.0213851 -1.0886072 1.6749959
C -1.303475 0.17854916 -0.7738785
C -0.17090286 0.3559151 -1.7721992
N 0.74565315 0.9736253 -1.1248082
C 1.2473971 0.64659894 0.019284552
C 0.5528249 -0.492767 0.66282505
O -0.67849576 -0.77971935 0.14747217
H -2.1709604 -0.33790913 -1.1782745
H 2.0147078 1.2210085 0.52138394
H -1.5995082 1.077088 -0.2192427
H 0.34137416 -1.7537825 2.0424416
