11

N 0.01935922 -1.5552914 0.121740304
C 1.287359 -0.923627 -0.017164936
C -0.8191118 0.72461295 0.13079952
N -1.804643 1.4805895 0.35976484
C -0.9588128 -0.74433005 0.19630648
C 1.5559791 0.45255885 -0.14496191
O 0.41694877 1.2167594 -0.22292602
H 1.6807336 -0.4057588 -1.1477475
H -1.9723997 -1.1216539 0.3191644
H 2.134527 -1.5878178 0.13389207
H -1.5399392 2.4639583 0.27113283
