10

C 0.6343926 -1.7723694 0.97177726
N 0.6759284 -0.732848 1.897475
N 0.20287672 0.342129 1.3578043
C -0.62304264 1.0606731 -0.81697804
N 0.16571827 -1.2070296 -0.20305859
N -0.032143548 0.0955848 0.09240373
H 1.265582 -1.68055 -0.20442061
H -0.03745624 1.092569 -1.7378318
H -1.6526427 0.77373576 -1.040444
H -0.59921294 2.0281053 -0.31672713
