10

C 0.15080133 -1.83239015 -0.41377930
N -0.39274677 0.02041290 -1.28033090
N -0.03626549 0.16309666 -0.01994312
C -0.02416339 1.45322024 0.63842111
N 0.31200016 -0.96729627 0.57262067
N -0.27973580 -1.24773282 -1.55073861
H 0.34283958 -2.89176448 -0.31889324
H 0.99264161 1.69488985 0.95118594
H -0.38283846 2.18366023 -0.08600122
H -0.68253295 1.42390372 1.50745879
