10

C -0.46585748 1.2133207 0.91150653
N 0.98211646 -0.7298102 -1.5945858
N -0.0029824344 0.16654746 0.02380091
C 0.36221728 -1.6525677 -0.8303172
N -0.27107638 -1.1170549 0.19901392
N 0.7382447 0.42003837 -1.0356044
H -0.11421485 2.1586397 0.49956292
H -1.5555891 1.1983361 0.9538963
H -0.053496774 1.0559357 1.9091573
H 0.38063854 -2.7133853 -1.0364305
