10

O -0.85615957 -1.4537963 0.8029336
C -0.19359961 -0.45972976 0.14531383
C -0.21023493 0.87808734 0.15306489
O -0.8830059 1.9194126 0.63250333
C 1.0823864 -0.33953756 -0.6611212
O 0.9027593 1.1186464 -0.59787816
H -1.3686157 -1.965893 0.1631656
H 1.0736022 -0.6673851 -1.7041564
H -1.563416 1.5902236 1.2324848
H 2.0162835 -0.62002796 -0.16631019
