12

C 0.5997105 -0.9530526 -0.10813321
C -1.1866342 0.50045675 -0.46663678
N -0.11574052 1.229023 0.035040673
N -0.8195969 -0.8388016 -0.40012437
C 0.83885837 0.3436742 0.67921335
O -2.2336438 0.9445545 -0.880403
H -0.3414501 2.1259701 0.43681458
H -1.2529866 -1.4440314 -1.0814193
H 0.829929 -1.8437736 0.48218137
H 1.2064166 -0.96404576 -1.0227633
H 0.6087613 0.1981158 1.7427087
H 1.8663759 0.70191073 0.58352154
