11

N -1.744377 0.8631346 -0.32994884
C 0.66693884 1.1582303 -0.31434914
C -0.60655445 0.42997316 -0.015359375
O -0.5007345 -0.73561734 0.75870353
C 0.36602667 -1.7181189 0.41338095
O 1.0459688 -1.7593045 -0.570156
H 0.3242058 -2.489201 1.1965115
H 1.2357882 1.3092202 0.6086814
H 1.28074 0.57912886 -1.0087256
H -2.4767888 0.23908064 0.008893717
H 0.40878654 2.1234741 -0.74763215
