9

O -0.36027531 -0.33972302 -1.17374991
C -0.93649036 -0.21000683 0.97692985
C 0.61396346 0.57610676 -1.38721218
N 0.29279104 -0.71532179 1.34094290
C 1.34488696 -1.12993952 1.67546153
N -1.31500291 0.02929516 -0.21028762
O 0.81395970 1.55602065 -0.73693814
H -1.63520946 -0.00486682 1.77989233
H 1.18137680 0.23843526 -2.26503849
