11

C 0.1947706 -0.34937057 1.0543609
C 1.0184499 0.31182286 -1.202043
N 0.5850882 -0.12612374 -0.042155508
C 0.37377465 1.4766034 -1.7498568
C -0.85877067 -1.1158779 1.7464699
O -0.5346858 2.0926666 -1.2170247
H 1.8327167 -0.22278376 -1.6746644
H 0.77763754 1.7889096 -2.7355893
H -0.4279875 -1.6984814 2.5652628
H -1.5472177 -0.38993108 2.1903071
H -1.4137758 -1.7674335 1.0649335
