14

C -1.60527350 0.46783892 -0.35777447
N -0.49673257 0.11551400 -1.23154818
C 0.72922595 -0.60281037 1.53662100
O 0.44230147 -1.22485517 0.37432777
N 0.94715398 0.63766551 1.62325383
C 0.63955221 -0.51652311 -0.80329078
N 1.76684643 -0.64665246 -1.36555396
H -1.93537576 -0.41637422 0.19243198
H 0.71329005 -1.34373525 2.34462174
H -2.43794924 0.80712136 -0.98108697
H -1.33953214 1.25594172 0.35478053
H -0.34623189 0.73128322 -2.01676109
H 1.13872577 0.89404214 2.58847015
H 1.78399964 -0.15845625 -2.25849200
