13

C -0.26471222 -1.02546854 -0.21588488
C 0.66354147 0.06505755 0.08212980
O 0.24681436 -0.80551572 1.12248403
C 0.25014602 1.50674076 0.17908683
O 1.99376120 -0.01740799 -0.28191569
N -1.64055405 -0.86859055 -0.51566334
H 2.31740908 -0.89319191 -0.03071092
H -2.18411098 -1.63923706 -0.14606705
H 0.15272352 -1.92119991 -0.68048043
H 0.42867137 1.99932584 -0.78016714
H -2.01030407 -0.01164856 -0.12603809
H -0.80451889 1.60779909 0.44831381
H 0.85113349 2.00333716 0.94491278
