10

N 1.528176 0.3629949 -0.96124965
C 0.5133295 0.030278858 -0.15254098
O 0.8774934 -0.5977303 0.9407291
N -0.7238452 0.34944096 -0.51017755
C -1.7075007 -0.019222524 0.34219274
O -1.583488 -0.6243528 1.41769
H -2.7153528 0.26959068 0.008419925
H 0.010668227 -0.78381747 1.420416
H 1.3256035 0.85896236 -1.8112392
H 2.474916 0.15385526 -0.69424033
