10

N -0.91349256 1.1913588 1.1077044
C 0.7942525 -1.0951053 -0.982729
O 0.20041403 -1.7925422 -1.8605919
N -0.10631381 -0.3509655 -0.38487557
C 0.19586556 0.5566827 0.6529203
O 1.3167671 0.7293502 1.0821229
H -0.7890255 1.9027901 1.8076044
H 1.8628726 -1.1301718 -0.7851397
H -1.8071699 1.069381 0.66451424
H -0.75417006 -1.0807779 -1.3015301
