10

N 1.4804559 0.50122046 0.9176575
C 0.22437973 0.6231402 0.37734428
O -0.4461877 1.6307555 0.44382235
N -0.23209836 -0.54812706 -0.23149735
C -1.4601519 -0.6413916 -0.86841804
O -1.8561214 -1.6721352 -1.3532132
H 1.8793826 1.3753098 1.226236
H 2.1287863 -0.16707993 0.5319644
H 0.2903972 -1.411603 -0.1649981
H -2.0088425 0.30991027 -0.87889755
