11

N -0.13987726 -0.40762691 2.11228203
C 0.50198902 -0.73714172 0.92795482
O 1.36671804 -1.57088698 0.84654646
N 0.05115996 0.06139569 -0.14163430
C 0.46413965 -0.12696110 -1.42954337
N -0.07859730 0.79269302 -2.22906994
H -1.09490324 -0.09190713 2.07783191
H -0.55776046 0.84029767 0.12867876
H -0.71171540 1.53703900 -1.93582311
H 0.06181550 -1.06242937 2.85296166
H 0.13703141 0.76552799 -3.21018470
