11

N -0.6942208 0.4066952 1.9842477
C 0.02153861 -0.26356903 1.0158913
O 0.73360175 -1.2167209 1.2464185
N -0.12290952 0.28359497 -0.25224572
C 0.5255232 -0.23158123 -1.3646022
N 0.40382102 0.35529074 -2.4860027
H -0.7284125 -0.08680905 2.8643308
H -1.549498 0.8758623 1.721438
H -0.61862844 1.1531432 -0.39438075
H 1.0967745 -1.132294 -1.1401547
H 0.9324101 -0.14361203 -3.19494
