11

N 1.360876 -2.083672 -0.57175094
C 1.1229396 -1.0215676 0.20545933
O 0.31253177 1.2246878 1.7079251
N -1.4667392 1.4801793 0.30964437
C -0.31458464 0.8697837 0.74294776
N 0.031495366 -0.24928638 -0.049193427
H -1.663685 2.3513567 0.7776523
H -0.6234873 -0.54992545 -0.77134144
H 2.2554736 -1.2519623 -0.31132984
H 0.71626276 -2.200858 -1.3793418
H -1.7310832 1.4312642 -0.6606714
