10

O -0.8016654 0.7218252 -1.5718538
C 0.8356657 -0.30440778 0.006537356
C 0.09337021 -0.10491424 1.2299662
O 0.87457633 0.9519307 0.7111123
C -0.5310779 -0.28595304 -0.68992233
O -1.1672864 -0.10799292 0.6211414
H 1.7704625 -0.7852604 -0.25395927
H 0.20343536 -0.38468805 2.271459
H -0.42691574 1.5295366 -1.1905724
H -0.8505648 -1.2300761 -1.1339084
