9

O 1.0078838 -0.9445846 -1.5008484
C 0.30868092 -0.3504047 -0.52032477
C -0.9427207 -0.623319 -0.07785561
O -1.197783 0.26653856 0.9399172
C -0.089191884 1.0049764 1.0364786
N 0.8454899 0.6933598 0.20026995
H 1.8639164 -0.49925476 -1.543518
H -1.719758 -1.3262956 -0.32459554
H -0.07651741 1.7789838 1.7904766
