9

O 1.509842 2.3304932 0.13036932
C -0.007458249 -1.4093723 -0.60454494
C 0.19889657 -0.36491662 0.16549633
O -1.2122883 -1.9515302 -0.9507677
C 0.5274857 1.8889984 0.6543856
N 0.35631934 0.52667534 1.0033587
H -1.8980494 -1.6199205 -0.35437664
H 0.8412924 -1.9043665 -1.0601511
H -0.31604046 2.5039392 1.0162305
