9

O -0.37102618 -1.82722283 -1.64489163
C 0.39492614 -0.20297005 -0.05430976
C 0.45282556 -0.82937518 -1.20786851
O 0.12464205 2.55621872 1.08536992
C -0.25220823 1.47257608 1.42922613
N 0.39667497 0.26003316 1.08908714
H 1.20027641 -0.53125038 -1.93272209
H -0.85841181 -2.19449067 -0.89423515
H -1.08769888 1.29648106 2.13034398
