9

O -1.87232648 -0.17676568 -0.11715028
C -1.33132704 0.32472569 -1.17522166
N -0.92234670 -0.52326275 0.99044628
O 1.36373026 -0.31362194 1.15787509
C 0.20821462 -0.18719379 0.51111675
C 0.14053277 0.37770685 -0.87111796
H 0.71036157 -0.20944798 -1.59945723
H 1.19081183 -0.69975122 2.03076783
H 0.51234907 1.40761044 -0.92725867
