12

O -0.63941586 -0.42171133 -1.3221078
C -0.06808402 -1.0618211 0.88617885
C -0.13040838 -0.085353576 -0.2687994
O 0.33247992 2.0461686 -1.2925936
C 0.439129 1.308596 -0.11667327
O -0.68366116 -2.2729492 0.58067644
H -0.114002876 1.4756836 -1.9378213
H -0.099421 1.803854 0.70706594
H 1.4907745 1.2202041 0.19922927
H -0.97736007 -2.2074215 -0.34106514
H -0.5437419 -0.59632355 1.7634372
H 0.9937118 -1.2089261 1.142473
