12

O -0.66621435 -1.448735 0.8768522
C -0.05877604 -0.22394374 1.200068
C 0.44478843 0.45474923 -0.0723107
O 1.3263146 -0.42406425 -0.72021073
C -0.7100895 0.77488416 -0.997183
O -0.7189246 0.38107148 -2.137702
H -0.032491133 -1.9109553 0.3087318
H 0.7873472 -0.3479369 1.8906056
H -0.81371355 0.39911056 1.6930019
H 0.9384967 1.406125 0.1906332
H 1.0292915 -0.46184865 -1.6458482
H -1.5260291 1.4015433 -0.5866378
