10

O -1.4935424 -0.05092174 -0.40293717
C 0.349156 -0.0038293991 0.91381955
C -0.9745278 0.04654522 0.8557558
C 0.82169926 -0.26801422 -0.49844608
N -0.37089136 0.03639858 -1.3166199
H 0.9668795 0.029676244 1.7997265
H 1.1145709 -1.3161126 -0.6403269
H 1.6527764 0.3611384 -0.8321447
H -0.3460772 1.03617 -1.5157624
H -1.7200431 0.12894958 1.6369354
