10

O 1.0307175 -1.4104899 0.4891999
C -0.8701423 -0.14185017 0.10733223
C 0.027124947 0.97935766 -0.38041738
C -0.19855686 -1.3433913 0.30376846
N 1.0649505 0.8191316 0.5396595
H 0.2662203 0.97740436 -1.451917
H -0.5185552 1.893181 -0.11176409
H -1.9288752 0.011447201 0.28236625
H -0.77424586 -2.2700567 0.1652012
H 1.9013625 0.48526624 0.056570884
