9

O 0.53294194 -0.2264674 -1.2241019
C -0.33820525 0.10621544 0.79198337
C 0.782289 -0.50384396 0.15995318
O -0.11589304 0.4048816 2.0157654
C -0.64670765 0.37155 -1.2285695
N -1.262059 0.57778734 -0.096008025
H -1.0224446 0.68122804 -2.1982827
H 1.0516748 0.14102441 1.4547994
H 1.0184038 -1.5523756 0.32446048
