12

N -0.43546927 -1.668026 2.3271198
C -0.34423998 -0.771763 1.604682
C -0.25334513 0.3609428 0.6625565
C 1.1513144 0.48120248 -0.0069000456
N 1.0064054 -0.078809574 -1.3496233
C -0.24048312 -0.24210599 -1.5366777
N -1.0975653 0.14993738 -0.51303285
H -0.5386426 1.2745755 1.1926401
H 1.4471018 1.5323665 -0.08246371
H 1.9257501 -0.049734905 0.5511801
H -0.66343665 -0.621991 -2.4616044
H -1.9573896 -0.36659393 -0.38787672
