12

C -1.121034 -1.0131179 -1.7000396
N -0.9989494 -0.5880829 -0.3203827
C 0.055101924 0.020296695 0.0095368745
N 0.2435711 0.46952227 1.3104682
C 1.3520793 1.148378 1.7472379
O 1.5058604 1.5410447 2.878279
H -1.9978961 -0.5333403 -2.1471488
H -0.24246867 -0.7852083 -2.320394
H -1.298194 -2.094159 -1.7276728
H 0.89303553 0.24882801 -0.6612413
H -0.4917701 0.28443635 1.9837162
H 2.100664 1.3014024 0.94764096
