12

C -0.93131192 0.16658918 -1.94428547
N -1.08985465 -0.06362416 -0.70743637
C 0.05301850 0.01259643 0.10137978
N -0.02467635 -0.24339068 1.33490636
C 1.18535584 -0.16251711 2.11446960
O -1.94478475 0.11668408 -2.81020655
H -2.73965140 -0.09668890 -2.29669894
H 0.00231133 0.42414099 -2.45018322
H 1.39492378 -1.14602035 2.54898053
H 1.00155737 0.29850520 -0.38903125
H 1.02328951 0.52686088 2.95054501
H 2.06982274 0.16686448 1.54756045
