12

C -0.089224145 0.0378396 0.036303423
N 0.606974 -1.1689813 -0.007826864
C -0.38309464 2.2965407 -0.35981134
N 0.41238773 1.0900824 -0.44620255
C 0.22444347 -2.3303514 0.4429471
O 1.1463662 -3.1816843 0.20177552
H -1.0795816 -0.004050303 0.5118595
H 1.5958402 -2.0542643 -0.2796937
H -1.3618536 2.1550832 0.12402011
H -0.7048356 -2.585798 0.9477682
H -0.54513586 2.6907275 -1.36803
H 0.177714 3.0548563 0.19689071
