9

N 0.15038657 -0.42223433 0.1435496
C -0.10280969 -1.0766139 -0.96157
N 0.24362285 1.3888052 1.5576416
C -0.053316627 0.92648935 0.4177924
O 0.22545972 -2.2951696 -0.7837015
H 0.032898135 2.3852236 1.5874593
H 0.49538007 -1.7147609 0.34943512
H -0.51943374 -0.69530797 -1.8938699
H -0.4721873 1.5035685 -0.41673684
