9

N -0.80725974 1.8445523 -0.12958278
C -0.10849835 0.810804 -0.3506412
N -0.23541602 -0.3073197 0.45842797
C 0.47976434 -1.4710543 0.30014277
O 0.36341405 -2.4372654 1.0126839
H -0.59734017 2.5715168 -0.80449384
H 0.6302253 0.67790884 -1.1488031
H -0.90314436 -0.261229 1.2192051
H 1.1782547 -1.4279132 -0.5569385
