9

N 0.30220011 1.73161770 -1.38313258
C -0.12126679 0.99560498 -0.44133320
N 0.39883529 -0.29490223 -0.28284456
C -0.06626737 -0.99421524 0.66628700
O 0.35521452 -2.23676320 0.89685038
H -0.88888175 1.30478325 0.28933225
H -0.17289074 2.63009759 -1.35738519
H -0.83232588 -0.70240727 1.39042808
H 1.02538238 -2.43381522 0.22179813
