10

N -0.82318914 0.8741571 1.35387
C -0.17081505 0.1765445 0.34940767
C 0.35128373 -1.0666064 0.21441479
N 0.98703223 -1.1471708 -1.0280638
C 0.80916053 0.0083885575 -1.553648
O 0.11174159 0.88282776 -0.77490634
H -1.5054383 1.5320859 1.0049677
H -1.2286944 0.26661512 2.0523453
H 0.33502927 -1.9016856 0.8982964
H 1.1338896 0.3748435 -2.5166836
