15

N 0.22223911 1.36166329 1.50224856
C -0.02744507 -1.48063431 -0.34424679
O 0.88706698 -0.67160105 0.39948341
N -0.64637086 0.75215476 -0.57585182
C 0.53031509 0.70761297 0.26697412
C -1.24882639 -0.57810930 -0.51444850
O 1.61865990 1.40646649 -0.24405038
H -1.90596970 -0.64624809 0.36054675
H -0.22958938 -2.39730894 0.21773027
H 0.40546845 -1.75278199 -1.31892895
H 2.05678623 0.84426063 -0.89295465
H 1.05060615 1.37671753 2.08656471
H -1.84271073 -0.78997361 -1.40767697
H -0.35764836 1.01380091 -1.51401076
H -0.51258155 0.85398058 1.97862056
