15

N 1.0228173 -0.1555067 0.4074075
C 0.45740926 0.99648845 -0.060485587
O -1.3957567 0.11849366 -0.4147747
N 0.4935457 2.0819118 0.7523368
C -1.0738055 -1.1999567 -0.15981345
C 0.47176448 -1.3504908 -0.22331828
O 0.35198593 1.2174021 -1.361477
H 0.8562 -2.2361698 0.29118627
H 1.0791075 -0.21375474 1.4127744
H 0.36962634 1.9459627 1.7410212
H 0.8147893 -1.3735418 -1.2619027
H -1.417857 -1.5080298 0.84485835
H 0.033365157 2.8877587 0.3559131
H -1.5092982 -1.9061706 -0.8822595
H -0.55389327 0.6956032 -1.4414668
