15

N 1.0496979 0.8100802 1.5498943
C 0.72504544 0.54266346 0.18179904
O 0.813866 -0.83612823 -0.18982753
N -0.6470042 0.94572467 -0.046128158
C -1.4405539 -0.2816006 -0.0627735
C -0.4593951 -1.2952179 -0.6503105
O 1.6568599 1.2674215 -0.55337733
H -1.7157761 -0.55774945 0.9619662
H -0.49417722 -1.2915149 -1.7504288
H -2.3585303 -0.15665591 -0.64342
H 2.0217118 0.5730866 1.7138057
H -0.68839586 1.4566342 -0.9231799
H -0.6170389 -2.3189678 -0.29809257
H 1.690699 0.8957632 -1.4421022
H 0.4629913 0.24646108 2.1521752
