11

C -0.27493212 0.046910893 -0.854391
C 0.27400702 -0.21282896 0.45440805
C -0.46113703 0.3812854 1.6382324
O 1.2554026 -0.92405826 0.6235731
C 0.43045563 -0.6003666 -1.9225825
N 1.099643 -1.45568 -2.4437265
H -1.3134638 1.0024838 1.352114
H -1.076445 0.74241596 -1.0685331
H -0.79698116 -0.44250822 2.2756815
H 0.6093637 0.48806497 -2.2673273
H 0.2540873 0.9742811 2.212552
