11

C -0.84316534 1.7316346 0.3290024
C 0.0635484 -1.5942554 -0.53243244
C 0.94448566 0.6352108 0.525632
O -1.1248152 0.51747805 -0.18293576
C 0.042871896 -0.18904388 -0.051937148
N 0.35902077 1.8731781 0.7659467
H -1.6419752 2.460174 0.32301652
H 1.0542259 -2.02118 -0.35679767
H 1.9731761 0.4383299 0.7897936
H -0.67570895 -2.2031343 -0.0051260437
H -0.15166423 -1.6483918 -1.6041621
