11

C 1.2970488 0.6373654 0.5730555
C 0.10034705 -0.29208693 0.413418
C -0.7488598 0.050877545 -0.78420883
O -0.54187095 0.94910187 -1.5578468
C -1.9301575 -0.83166957 -0.9750143
N -2.8427227 -1.5225856 -1.1145159
H 1.9462954 0.598385 -0.30660388
H 1.8836408 0.3440618 1.448717
H 0.97699016 1.6744608 0.70212907
H -0.55307144 -0.26818436 1.2954139
H 0.4123602 -1.3397261 0.30545643
