14

C 2.1229272 -0.1637773 -1.1948259
N 1.1196496 -0.54314554 -0.21853697
C -0.03516383 0.20531681 -0.11940706
O -0.18942589 1.2709136 -0.6897848
N -1.0001692 -0.37109667 0.6891786
C -2.1563618 0.42418432 1.0614504
H 1.844517 -0.44341883 -2.219075
H 3.0698805 -0.64315385 -0.93709546
H 2.2526104 0.91821605 -1.1607043
H 1.0244659 -1.534188 -0.05001653
H -0.65596485 -0.9985412 1.402781
H -2.928074 -0.23585358 1.4631976
H -1.9232091 1.1984023 1.8038148
H -2.5456827 0.9161422 0.16902402
