14

C 1.44701985 0.99944762 -1.12303999
N 1.36270916 -0.06426097 -0.13700480
C 0.15558431 -0.52827491 0.34824389
O -0.82210244 0.36769843 0.13051488
N -0.07694794 -1.62440638 0.95715325
C -2.09239860 0.04059548 0.67744142
H 1.04114339 0.71101999 -2.10090563
H 2.05782217 -0.78743075 -0.23333768
H 2.49983649 1.26891348 -1.24205806
H 0.76879042 -2.17585451 1.05907160
H -2.47316768 -0.89257065 0.25483429
H -2.03183164 -0.06781141 1.76453886
H 0.90500857 1.87675485 -0.76827790
H -2.74146683 0.87618006 0.41282627
