11

C -0.43695426 -1.380765 -0.5694732
C -0.5127601 0.014781534 0.03729318
C 0.8412719 0.64656776 0.22581613
O 1.8950493 0.1435376 -0.059616115
C 0.81125325 2.0119026 0.8202031
N 0.7754003 3.0679753 1.2817756
H 0.048684113 -1.3585206 -1.5486645
H -1.4440709 -1.7890991 -0.6894327
H 0.13756818 -2.056671 0.0703488
H -1.0089463 0.0032009964 1.0169208
H -1.1064953 0.6970901 -0.58517104
