11

C -1.0118461 1.1080459 -0.5605434
C 0.708625 -0.67691886 -0.13526012
C -0.21364424 0.33866268 0.39125827
O 0.19066657 -1.2610589 -1.1775241
C 1.2457528 -1.5507772 0.95357925
N 1.6637135 -2.2311218 1.7885302
H -0.5849256 1.0282239 -1.5665313
H 1.5874838 0.053070642 -0.3271981
H -1.1883612 2.1289105 -0.20628154
H -1.9928956 0.6119548 -0.6223137
H -0.40456846 0.45100817 1.4622844
