11

C 0.40237492 -0.3535978 -0.61027855
C -0.65934044 -1.0344573 0.15428466
C 0.8072261 1.0720351 -0.35523435
O 0.71236366 -1.3130448 0.39019525
C -1.3745921 -0.3373999 1.2120562
N -1.9619341 0.2230328 2.0338562
H 1.8830043 1.1906829 -0.5153681
H -1.2272251 -1.8391967 -0.30929533
H 0.5595095 -0.7219712 -1.6261026
H 0.28282022 1.7415695 -1.0443426
H 0.57579297 1.3723477 0.67022955
