12

C 0.058815952 -0.17877562 0.17219482
N -1.2922095 -0.17124662 -0.16406898
C -2.0739899 -1.2903867 -0.25350288
N 0.76390135 0.9029537 0.13992654
C 2.1664853 1.012497 0.23407945
O -3.2501395 -1.2817653 -0.5400044
H -1.5075479 -2.2143917 -0.032174677
H 2.7448022 0.15594932 0.57739204
H 0.50124913 -1.132393 0.4549034
H 2.4991605 2.0088274 0.49151766
H 1.139122 1.4730616 -0.73408663
H -1.7496492 0.71567017 -0.34617633
