12

C -0.054442964 -0.024367362 0.0029392492
N 1.0010469 0.6616507 -0.035302356
C -1.1072127 -2.228369 -0.0070020803
N -0.0071671614 -1.4146502 -0.04626321
C 0.86824447 2.1043508 0.017030567
O -1.0603576 -3.4349399 -0.0499187
H 0.9014709 -1.8582349 -0.114065245
H 1.4308685 2.4828918 0.8763947
H -1.0732192 0.37976107 0.07675606
H 1.3244447 2.5347521 -0.8795719
H -2.0532498 -1.6621153 0.06842838
H -0.170426 2.4592698 0.090574555
