11

N -0.18454069 0.6563412 -0.122278415
C -1.0934108 0.3613007 0.99860626
C 1.2085896 -1.1286634 -0.79090655
N -1.4674139 -0.5207066 1.7857745
C 0.76733804 0.23679583 -0.92489684
C -0.98899955 1.592727 0.3609079
O 0.76333535 -1.9239506 0.022630889
H 2.0062935 -1.4310817 -1.4980116
H 1.176249 0.9260644 -1.6567001
H -1.2144387 2.6305645 0.20237038
H -0.97300166 -1.3993912 1.6225034
