11

N -0.41276312 0.81609529 -1.17335803
C 0.80933313 0.62683493 -0.58420200
C 0.73979632 -0.29237132 0.49704273
N 1.76324915 -0.71286831 1.20236665
N -1.34989052 0.14698086 -0.37170317
C -0.65945283 -0.57961426 0.54835330
H -2.08658762 -0.28608569 -0.91583348
H 1.68668223 1.12938184 -0.96814578
H -0.72301011 1.76300577 -1.35837674
H 1.42894239 -1.36688972 1.91038759
H -1.19629913 -1.24446922 1.21346894
