11

N -0.8767686 0.9920579 -1.3399494
C -0.28028515 0.23775992 -0.31155944
C 1.0166216 0.30060107 0.1547411
N 1.0795016 -0.5585553 1.2099512
N -0.077353284 -1.1761706 1.4544048
C -0.9111327 -0.6995512 0.53948164
H -1.5602175 0.45693043 -1.859432
H -0.19452508 1.3630105 -1.9867952
H 1.8705707 0.8755702 -0.1702369
H 1.8738993 -0.75758594 1.7932147
H -1.940311 -1.0340668 0.5161795
