12

O -0.99680655 -0.58778319 -1.00267749
C -0.20274359 -0.12000090 -0.20674754
C 1.19402925 0.25585993 -0.65615386
O 1.39584176 -0.03262234 -2.00525442
C -0.61050544 0.08464771 1.23630124
O -1.93923641 -0.26983477 1.46033466
H -0.43773594 1.14065269 1.49876374
H 1.33697921 1.32974008 -0.45648912
H 0.55787298 -0.39869104 -2.32960781
H 1.91839505 -0.28261031 -0.02431570
H 0.06631339 -0.51258690 1.86805340
H -2.28240394 -0.60677062 0.61779254
