12

N -0.01893824 -1.0765479 1.1457616
C 0.1787179 0.012631061 -1.0952603
O 0.97965646 0.82255113 -1.8318316
N -0.68455315 -0.76299334 -1.5958287
C 0.34262264 0.11687862 0.38651398
C -0.86167026 0.09231756 1.2541351
H 0.5881176 -1.1674628 1.9544762
H 1.6206081 1.2821664 -1.2764754
H -1.8300418 -0.015837952 0.7771203
H 1.1891351 0.7158951 0.72912395
H -0.663654 -0.707301 -2.6133957
H -0.8400003 0.6877031 2.1656601
