12

N -0.54348881 -1.09442815 0.98940921
C -0.97188095 0.27729293 1.14123138
O 1.46673920 0.58723971 -1.57979423
N -0.63395810 -0.35986007 -1.75101084
C 0.29684719 -0.03603154 0.43706682
C 0.34288497 0.03826646 -1.05482716
H -0.90340465 0.75676991 2.11654886
H -0.13274723 -1.44771654 1.84805948
H -1.83608029 0.53904145 0.53987342
H 2.12581774 0.75922036 -0.89676872
H -0.43681193 -0.23425754 -2.74314914
H 1.22608292 0.21446314 0.95336039
