10

O -1.5619113 -1.6582886 -0.50914747
C -0.7648462 -0.8153069 -0.15919441
C 0.38627005 -0.11109672 -0.91270494
N 0.7231261 0.6812413 0.29775658
C -0.477953 -0.0815222 1.0531611
H 0.0074480097 0.5499411 -1.6980526
H 1.2154197 -0.7132229 -1.2932901
H 0.87968844 -0.014294283 1.2092314
H -1.116885 0.47040582 1.7300149
H 0.70964307 1.6921436 0.2822257
