10

O -0.9512902 1.8534182 0.99892384
C -0.2971477 1.104904 0.026417894
C -0.14121713 -0.33820954 0.46828118
O -0.56787777 -0.7054647 1.5416757
C 0.53774625 -1.234986 -0.45904124
C 1.104085 -1.944062 -1.2485974
H -1.1495203 1.237214 1.7231102
H 0.70579857 1.5060394 -0.18472949
H -0.847245 1.1086901 -0.9263147
H 1.6066682 -2.5875437 -1.9397261
