10

O 0.50116557 1.2018176 -1.1724011
C 0.59906435 -0.96054554 -0.12204593
C 0.6830883 -2.1541555 -0.22678524
O -1.803195 1.3113381 0.122630574
C -0.925078 0.71503353 0.6927484
C 0.4322281 0.49938056 0.027791642
H 0.7719694 -3.21331 -0.3371433
H 1.2106782 0.8710778 0.71085507
H -0.4119588 1.4495834 -1.3945215
H -1.0579622 0.27978003 1.6988713
