12

N 1.6149144 0.36013025 0.9909931
C 1.7062575 0.9565564 -0.18208042
C 0.5186089 -0.4539943 0.8318559
N -2.030927 0.006725393 0.1385567
C 0.24311776 -0.64485997 -0.7532421
N 0.88790363 0.5858833 -1.177482
C -0.7201399 -0.03530378 0.0421692
H 2.4233751 1.7567728 -0.3542511
H 0.18645488 -1.5155942 -1.4073303
H -2.631348 -0.33205017 -0.60250694
H -2.473797 0.5200088 0.88863355
H 0.27557945 -1.2042745 1.5846846
