12

N 0.85791725 -1.7380497 0.56562436
C 0.26780134 -0.54521346 0.17024206
C 0.9291177 0.39450622 -0.625064
N 0.3472984 1.5086465 -1.0617874
C -0.92056894 1.6956489 -0.69974023
N -1.6526089 0.8820806 0.055407804
C -1.0546024 -0.22661576 0.48523673
H 1.8664181 -1.7398105 0.60541457
H 0.447589 -2.1762235 1.3776175
H 1.9659675 0.23850702 -0.9217463
H -1.4023885 2.6015122 -1.0561317
H -1.6519405 -0.8949884 1.1049268
