13

C 0.05808528 -1.56928863 -0.61169782
C -0.32141300 -0.29722098 0.08836690
O -1.51095952 -0.31526829 0.82579782
C 0.38684485 0.83577069 0.10783801
O 1.59464075 1.02221277 -0.48924932
N -0.03032039 1.99660159 0.75484909
H 1.13619963 -1.63834805 -0.79982837
H -0.46043870 -1.68225815 -1.57665988
H -0.21847368 -2.42612342 0.01214803
H 1.73995932 0.32034983 -1.13380309
H -2.24048224 -0.44820496 0.20568268
H -0.85117829 1.80287280 1.31067248
H 0.71753607 2.39890463 1.30588329
