13

N -0.6051968 -0.8640528 -1.4395137
C 0.43998125 -0.042291746 -0.8404758
C -0.08154308 0.5492977 0.47986293
N -0.52762496 -0.5312953 1.3502647
C 0.9881233 1.3188303 1.1367815
N 1.8221769 1.9408005 1.6385088
H -0.5176668 -0.88057387 -2.4498188
H -0.5106796 -1.8245232 -1.1288204
H 0.6880589 0.78163 -1.5164979
H 1.3636483 -0.5981476 -0.62397176
H -0.8856565 1.2607238 0.23403458
H -1.3462331 -0.9404762 0.9112122
H -0.8273883 -0.1699216 2.2484334
