13

N -0.8241661 -0.34655404 1.295405
C -0.1935657 0.5793769 0.38191748
C 0.21521981 -0.1772293 -0.88965476
N -1.8510705 2.5372033 -0.18691719
C -1.1358609 1.6639225 0.058929585
N 1.0856185 -1.2784758 -0.50381374
H 2.0171986 -0.92908007 -0.29724723
H -0.936481 0.060862754 2.215666
H -0.2437619 -1.1754886 1.3465903
H 0.6672507 0.5251131 -1.6052878
H 0.707433 1.0694373 0.79180807
H -0.6924494 -0.59274787 -1.3401275
H 1.1846346 -1.9363399 -1.2672681
