11

N 1.54166803 -0.74880004 0.74232678
C 0.40114417 -0.15776927 0.18510866
N 0.05309240 1.11670679 0.49403751
N -1.03585467 1.54961451 -0.17519818
C -1.37647115 0.52092713 -0.92580320
C -0.52070966 -0.59016512 -0.74336401
H 1.68371495 -1.68016308 0.37128148
H 0.55577907 1.75517515 1.08860692
H -2.23753236 0.59539438 -1.57762831
H -0.57206796 -1.56178586 -1.21308434
H 1.50723682 -0.79913462 1.75371668
