10

O 1.7127566 -1.777795 0.8273867
C 1.1511045 -1.4650924 -0.19556448
C 0.19655438 -0.33776864 -0.26175088
N -0.39328632 -0.041148826 -1.3927767
O -1.1926758 1.0284148 -1.1207526
C -1.0672514 1.3578773 0.17758407
C -0.19614746 0.5305535 0.7943604
H 1.3148385 -2.0002813 -1.1490765
H -1.664531 2.1997473 0.50137913
H 0.13863814 0.5054933 1.8192108
