10

O -1.0550257 -1.9153438 1.1180685
C -0.625068 0.58752584 -0.28161344
C 0.18626806 -1.5901923 0.8768507
N 1.5896723 0.07247587 -0.1515307
O 1.4216801 1.256617 -0.79598564
C 0.10910844 1.556025 -0.86787635
C 0.37973672 -0.3317279 0.1577032
H -0.1878735 -2.6221774 1.4655689
H -0.12628728 2.487025 -1.3630881
H -1.6922109 0.49977264 -0.15809678
