10

O 0.88253119 -1.51198982 -1.18852754
C 1.16234111 -1.35479182 0.12353898
C 0.46012781 -0.32350064 0.63099729
N -0.02152983 -0.57403241 -1.56984077
O -1.33998169 1.80731633 0.53728040
C -1.23791599 1.25832237 -0.65850678
C -0.28105454 0.14047389 -0.50467535
H 1.87655577 -2.05681096 0.52858823
H -1.95180693 2.55047390 0.46532350
H 0.45073324 0.06453918 1.63582199
