10

O 1.5566256 -1.1400578 0.8687676
C -0.43678144 1.752578 0.53584963
C 0.17911279 0.41585758 0.38523096
N 1.1781722 0.12600784 1.1791561
O -1.3959619 1.807141 -0.3689788
C -0.12855822 -0.6765142 -0.49023372
C 0.77298784 -1.6087966 -0.12658116
H -1.8254993 2.6676626 -0.2865695
H 0.993598 -2.615654 -0.44995046
H -0.8936956 -0.7282242 -1.2466904
