12

O -0.6606369 1.4915782 -0.8126082
C 0.18676506 0.41859254 -1.1336455
C 0.48108113 -0.40185127 0.120008305
O 1.0336927 0.4537177 1.0844191
C -0.7907535 -1.0139961 0.66749245
O -1.1291921 -0.8248626 1.8115612
H -0.25782493 1.9151188 -0.0397611
H 1.1398925 0.7564943 -1.5637394
H -0.32428208 -0.19804741 -1.8822429
H 1.1671026 -1.2283735 -0.13062645
H 0.529794 0.28694448 1.8999537
H -1.3756384 -1.655315 -0.020811327
