11

N 1.58362672 -2.23184316 -0.42082432
C 0.97752805 0.23949054 -0.57939445
C -1.23095758 1.32204105 0.40912713
C -0.20108833 0.33004110 0.04487309
C 0.91362183 -1.19480892 -0.25888241
O -0.34713327 -1.02282102 0.39046921
H 1.66844242 0.89475619 -1.08545789
H -0.93438586 2.31361345 0.06192930
H -1.36378816 1.34444014 1.49595202
H -2.18974111 1.05125140 -0.04422738
H 1.12387509 -3.04616064 -0.01356418
