9

O -1.8918453 0.9010941 0.6638055
C 0.12543772 -1.1979892 0.6353324
C -0.9945805 0.96297336 -0.13381512
O 1.0562084 0.2791331 -1.1455073
C 0.19161585 0.04612099 -0.092125356
N 0.7371671 -0.2907677 1.2630676
H 1.8983805 -0.15624662 -0.9652376
H -0.14781488 -2.2395856 0.74007475
H -0.9745688 1.6952676 -0.9655949
