11

C -0.9350333 1.3021871 0.2944005
N -0.08921817 0.15814935 0.028815648
C -0.381297 -1.1538291 0.0076214904
N 0.6945731 -1.8591079 -0.27746388
C 1.6392771 -0.89504206 -0.4230837
N 1.2182716 0.3402229 -0.2472861
H -0.573621 1.8301919 1.179839
H -0.9180098 1.9778554 -0.5640347
H -1.9551624 0.95440394 0.46677667
H -1.3714249 -1.5442033 0.20173152
H 2.6716447 -1.1108284 -0.6673165
