10

N -0.93151754 0.67066586 0.077192426
C -0.0489178 0.87124854 1.0455072
O 1.1017966 0.32484412 0.89033985
C 1.0571234 -0.49132124 -0.3860949
C -0.3825848 -0.48478073 -0.67110467
N -0.8706441 -1.5163485 -1.1630639
H 1.7068163 0.06675388 -1.0676603
H 0.53602886 -1.7514899 -0.8660065
H -1.9105371 0.89465946 0.1791036
H -0.2575639 1.4157681 1.9617871
