10

N -0.7698657 -1.075206 -1.5380257
C -0.8054317 -0.20001292 0.8418331
O 0.12074949 0.6313158 1.4702934
C 1.0499845 0.9150367 0.62570274
C -0.3982044 -0.43655172 -0.477463
N 0.8157366 0.33343822 -0.5370631
H -1.6305776 -1.581753 -1.3598526
H 1.8738025 1.556323 0.90185195
H 1.3793286 0.38166618 -1.373034
H -1.6355222 -0.5242561 1.4457572
