10

N 1.02403368 0.11366281 -0.05898985
C -1.11838384 -0.07393491 0.37571209
O -0.39724197 0.15324686 1.54713184
C 0.84954919 0.25450363 1.24288276
C -0.23697611 -0.11707550 -0.71221538
N -0.24046652 -0.28073658 -1.99440395
H 1.59316010 0.43883680 2.00396534
H -2.18238512 -0.19031990 0.49088162
H -1.18558238 -0.44272422 -2.32557837
H 1.89429303 0.14454100 -0.56938619
