10

O -1.268797 0.6811606 -0.89955753
C -1.0941657 -0.43669736 -0.10361779
C 0.16828609 0.9261656 -0.84093666
O 1.0713048 -0.48842913 1.2623559
C 0.3579787 -0.46858987 -0.2800112
O -1.9172047 -1.0263462 0.53330815
H 0.396763 1.7412485 -0.15227936
H 1.3367923 -1.1823916 0.4898
H 0.3667785 -0.8573078 1.8254738
H 0.582264 1.1111873 -1.8345352
