10

O 1.05104069 -1.51973985 0.46910537
C 0.37094167 -0.31441092 0.36715371
C 0.23511060 0.42727378 1.45157336
O 0.10326778 1.06241211 2.42179108
C -0.29310799 0.07813976 -0.92899130
O -1.16899154 1.16956091 -0.74247018
H -0.79601996 -0.80692523 -1.34586451
H -1.91900363 0.87016803 -0.21732705
H 1.96406399 -1.37616906 0.18495052
H 0.45269821 0.40969040 -1.65992100
