10

O -0.1086811 0.8073167 2.5181112
C 0.19519988 0.42458937 1.4582613
C -0.44619346 -0.0815411 -0.86562425
O -1.7474768 0.23627213 -0.41973338
C 0.54481745 -0.035344627 0.27051532
O 1.8141689 -0.57428944 0.11549261
H 2.389356 0.109440364 -0.25415784
H -0.19587098 0.66562647 -1.6268668
H -2.058077 -0.48003998 0.14449531
H -0.38724262 -1.0720298 -1.3404934
