11

O 0.45382464 1.2452757 2.410873
C 0.4215226 -0.29852408 -1.3416629
N -0.7368526 0.6036218 0.55533713
C 0.5423455 0.6948849 1.3278313
C -0.69386244 -0.3233618 -0.4706272
O 1.5030674 0.15266462 0.7204227
H -1.621555 -0.7880727 -0.81394106
H -1.5479869 0.57661396 1.1548077
H 0.0026097437 -1.229373 -0.1385209
H 1.1710664 0.47538775 -1.3399149
H 0.5058205 -1.1091174 -2.0646043
