11

N -0.42164266 -1.6492671 -1.066095
C -0.23363219 -0.48936796 -0.355729
C 1.014975 -0.13240221 0.20285802
N 1.1609232 1.0154263 0.8223707
C 0.06101429 1.7908738 0.87200165
N -1.1236261 1.4924059 0.37069553
N -1.275808 0.3249128 -0.2493784
H 0.17773265 -2.4311738 -0.8638811
H -1.388261 -1.8839207 -1.2385731
H 1.8802371 -0.788365 0.13463072
H 0.14808767 2.7508783 1.3711
