9

N 1.2665452 -0.15417178 -1.5659615
C 0.21963023 -0.023706222 -0.86284274
N 0.29390767 -0.03631044 0.522231
C -0.7841512 0.092981756 1.3652484
O -0.7083462 0.07721847 2.5690033
H 1.0416864 -0.12482709 -2.554158
H -0.80110866 0.10577396 -1.2339627
H 1.210243 -0.15187024 0.93915445
H -1.7384063 0.21491157 0.8212871
