11

O 0.5433413 -2.327462 -0.15945457
C -1.1664925 -0.46654713 0.37168896
C 0.22660233 1.2124559 -0.15836272
N -0.88285863 0.417569 -0.61906344
C 1.1321332 0.02796249 -0.3089523
C 0.41213235 -1.1456112 -0.034181125
H 0.11432358 1.6227849 0.8563372
H 0.47849497 2.0030663 -0.8687622
H -1.1072365 -0.14307693 1.4159582
H -1.9110829 -1.2274137 0.15634811
H 2.1606429 0.026272267 -0.6515561
