9

O -1.15719248 0.90928585 1.34196234
C 1.05661433 -0.12602588 -1.01304112
N 0.59166769 0.92284723 -0.27004043
N 0.46178413 -1.27901490 -0.81280400
C -0.35581152 0.35099845 0.43062938
N -0.46091650 -0.95326031 0.13527600
H 1.86551860 -0.02396007 -1.72364804
H -0.91053959 1.84380482 1.40205930
H -1.09112465 -1.64467523 0.50960628
