9

O -1.9831562 -0.16017655 0.09051548
C 1.2965597 0.539151 -0.43222424
N 0.17243902 -0.7984515 0.68716
N 1.4611175 -0.4475281 0.41788554
C -0.6595714 -0.010394633 -0.010046303
N 0.0021223729 0.85551953 -0.7366962
H -2.3883724 0.50515354 -0.4847329
H -0.04191785 -1.5473738 1.3263052
H 2.1407795 1.0641004 -0.8581665
