9

O 1.5557835 -1.0062345 0.9996326
C 0.52172655 -0.38428703 0.43263268
N -1.1183012 1.0274252 0.10622445
N -0.08008941 0.62311095 1.0620834
C -0.94409955 0.19920339 -0.9231196
N 0.0010964719 -0.7268954 -0.7480954
H 1.8179662 -1.7189943 0.403197
H -0.19343048 1.7205817 0.47764167
H -1.5606521 0.2660899 -1.8101966
