9

O -0.06806573 0.76775259 -1.14776151
C -0.35945241 -1.47407927 -0.23560222
C 0.31205963 0.90911228 0.19848906
O -0.64119874 1.09629486 1.14796651
C 0.53864777 -0.36445160 -0.50937343
N -1.08834115 -2.33499845 0.02776547
H -1.37332659 0.47533786 1.01592229
H 1.52362788 -0.64346824 -0.87775207
H 1.15604935 1.56850023 0.38034588
