10

C -1.0826052 0.24625735 -0.25072873
C -0.3192096 -0.595422 -1.0500998
N 0.9491934 -0.89008504 -0.7650786
C 1.4434648 -0.3278327 0.33556125
N 0.813013 0.4906787 1.1755787
C -0.4547284 0.7703819 0.8689256
H -2.113539 0.47980848 -0.49028426
H -0.73277986 -1.0507118 -1.9483805
H 2.478718 -0.5618186 0.5762085
H -0.981527 1.4387434 1.5482981
