10

N 0.1534361 0.9814188 0.43538445
C -0.21363805 -0.8968959 -0.7156988
C -0.15170507 0.60264874 -0.7645602
C 0.105791815 -1.334185 0.70016676
C 0.3108399 -0.14560269 1.3283664
H 0.48596638 -1.3314025 -1.4427079
H -0.3116262 1.3134786 -1.5655273
H 0.2632374 1.954038 0.70376235
H 0.5652817 0.10089442 2.3526857
H -1.2075841 -1.2443923 -1.0318714
