10

N -0.07409472 1.03431997 0.31776910
C -0.96606442 -1.11944434 0.30828406
C 0.33138957 -1.01620804 -0.46881817
C -1.14085128 0.15621627 0.74594487
C 0.80818731 0.40558860 -0.39125863
H -1.91709866 0.61978156 1.34367283
H 0.19868815 -1.31335146 -1.51893423
H 1.09713954 -1.69738324 -0.07332871
H 1.67639857 0.90700057 -0.80015643
H -0.01369430 2.02347987 0.53682527
