12

N -0.15055784 1.06340298 0.98317311
C -0.13453886 1.43348849 -0.22334999
C -0.92930531 -1.17949690 1.31339107
C 0.29030378 0.37515267 -1.21745892
N 0.81015774 -0.63776473 -0.31638129
C 0.26472985 -0.34650085 1.00393369
N -1.85192014 -1.85227744 1.49268420
H -0.58000795 0.05883868 -1.81349195
H 1.05825076 0.73443078 -1.90873444
H -0.42220734 2.44470026 -0.50912469
H 0.64311271 -1.59259956 -0.60245124
H 1.00198258 -0.50137455 1.79781055
