12

N -0.92509985 2.0784578 1.790221
C -0.8581404 1.2752677 0.96409583
C -0.7605253 0.2233843 -0.06806048
C 0.3940225 0.47397202 -1.0842993
N 1.4855049 -0.4108285 -0.6799482
C 1.0059873 -1.194706 0.19821943
N -0.34462017 -1.0545026 0.5084199
H -1.7324646 0.13505334 -0.56235874
H 0.07368586 0.21252376 -2.0978541
H 0.7249827 1.5156018 -1.0933021
H 1.5750481 -1.9903337 0.67293906
H -0.63838106 -1.2638901 1.4519278
