12

N -1.9018393 -0.08719316 0.25961298
C 1.5794098 -0.2470304 -0.95528704
C -0.8164137 -0.7676809 -0.19726494
C 0.21477512 0.26020148 -0.8638464
N 2.64958 -0.6846963 -0.9980787
C -0.8128478 0.37595707 1.0007783
N 0.036022484 1.2459828 0.21047935
H -0.8945801 0.4242715 2.0880318
H -0.15411574 0.58603567 -1.8415526
H 0.905796 1.4866774 0.66880125
H 0.006098858 -0.7418589 0.9938488
H -0.8118857 -1.8506665 -0.3655224
