9

O -1.2634664 0.22553763 0.7588971
C -1.2047567 -0.9266448 1.3989512
C -0.6111217 0.43158057 -0.38317487
O 1.6641216 0.8930442 -1.08069
C 0.77457017 0.06520219 -0.4795127
N 0.81538254 -1.1406682 -0.15244721
H 2.4389024 0.35304534 -1.2945788
H -1.2366104 0.7147784 -1.2268836
H -1.3770213 -0.6158755 2.459439
