11

C -2.04846344 -1.30783280 0.55233741
C 0.24836384 -0.30143634 -0.38012315
C 1.74404520 1.47950646 -0.49107775
O -0.88102400 -1.94584093 1.14145772
C -0.70158400 -0.93773841 0.22461693
N 1.12435744 0.26865793 -1.02940359
H -2.62521437 -0.69736429 1.24532018
H 1.35756303 1.76431151 0.49480983
H 1.57249127 2.29596917 -1.19818841
H -2.61356922 -1.93317399 -0.13452237
H 2.82303454 1.31494141 -0.42522696
