11

C -0.6803624 -0.8307012 0.51871836
C 1.6822664 1.24748 -1.0419039
C 0.18091062 -0.38713962 -0.33828437
O -0.7412795 -1.6141149 1.646379
C -1.969901 -1.0505141 1.1079783
N 0.9608487 -0.013499097 -1.2135139
H -2.6467023 -1.7736983 0.65951747
H 2.7547517 1.0418576 -1.0978564
H 1.4564502 1.7522393 -0.09497106
H 1.4238541 1.9065869 -1.8754798
H -2.4208362 -0.2784969 1.7294165
