12

C 0.559055 -0.64844877 -1.8491254
C -0.07859967 -0.7429392 -0.47949022
O -0.6035027 -1.744942 -0.046505265
N 0.009759611 0.41872913 0.27034646
C -0.4768303 0.5401698 1.5635096
N -0.34689286 1.6435373 2.1772194
H 0.13466473 -1.4233487 -2.487119
H 0.40524697 0.3336669 -2.3089232
H 1.638574 -0.8211395 -1.761812
H 0.4491532 1.2437807 -0.117828466
H -0.9419726 -0.37516552 1.9315995
H -0.74865556 1.5760998 3.1081285
