10

N 0.22648638 1.7679789 0.394488
C -0.20079155 0.48001462 0.16379721
N -1.4027506 0.051254723 0.36084124
O -1.3362068 -1.3387684 0.104450166
C -0.08109917 -1.6992426 -0.26015848
O 0.28185934 -2.8127677 -0.52340484
N 0.64445174 -0.5131238 -0.25583455
H 0.75457275 2.176796 -0.36505947
H -0.534953 2.3680477 0.68036675
H 1.6484308 -0.4801895 -0.29948613
