10

N -0.6991243 -2.7480898 1.7313392
C 1.454218 0.44491494 -0.9904642
C 0.18312535 1.2220778 -0.70483047
N 1.3126774 -0.74690855 -0.32096833
C -0.33204246 -1.8571734 1.0986907
C 0.1331064 -0.74854064 0.30524305
N -0.60570294 0.3392113 0.15761466
H 0.41225967 2.165636 -0.20016629
H -0.3446613 1.4358588 -1.6400858
H -1.5138559 0.4930133 0.56362724
