10

N 0.60662144 -0.17300712 3.3033662
C 0.35049814 -0.02884315 2.185572
C 0.039832022 0.13470648 0.7992116
N -0.6576404 1.1198885 0.28620157
C -0.7024988 0.86349887 -1.0541408
C -0.022584077 -0.29102105 -1.3513566
N 0.45238772 -0.7526342 -0.15452084
H -1.2219048 1.5233234 -1.7340231
H 0.15902531 -0.80941033 -2.2791312
H 0.9962633 -1.5865016 -0.0011786999
