10

N 0.6514195 -1.2728168 0.33336616
C -1.702798 -1.3375125 -0.26654902
C -0.45360002 -0.67136526 0.010820689
N -2.710381 -1.8507892 -0.48916295
C 1.6320083 -0.27821368 0.6171859
C 0.9651591 0.95357615 0.26614958
N -0.36127213 0.6814358 -0.06821501
H -1.0935729 1.3129631 -0.35175884
H 1.7851312 0.49571106 -0.5319497
H 1.2879058 1.9670118 0.48011327
