10

N 0.6030491 -0.17224227 3.302632
C 0.3519228 -0.027456358 2.18452
C 0.041733474 0.13661036 0.797374
N -0.6540838 1.1222684 0.2836529
C -0.7012006 0.8635736 -1.0543244
C -0.023748282 -0.29280797 -1.3502513
N 0.45034626 -0.75318855 -0.1532239
H -1.2205034 1.5235382 -1.733496
H 0.15623324 -0.8142683 -2.2772136
H 0.9962512 -1.5860271 0.00032991896
