10

N -0.96064377 0.020340007 -0.8004763
C 0.004425124 -0.883004 -0.2717217
C 0.49504372 0.96768224 0.708618
N 0.84851164 -0.43493396 0.5721053
C -0.019654477 -2.260483 -0.70852315
C -0.6735481 1.1235577 -0.21923819
N -0.05719684 -3.3575137 -1.0583963
H -1.2292665 2.0374813 -0.4023252
H 1.3471098 1.5951229 0.42823923
H 0.24521928 1.1917503 1.7517186
