10

N 0.63553916 -0.81569105 0.40887901
C 1.07988522 -0.01511542 -0.71919134
C -0.51200430 -0.33735979 0.69107758
N -1.00074977 0.74387719 -0.09570336
C -0.05623450 0.94034617 -0.93632324
C -1.33149544 -0.83736866 1.77147062
N -1.99132127 -1.21891643 2.63538508
H -0.10858068 1.71160416 -1.69791442
H 1.26374523 -0.66052278 -1.58403552
H 2.02121634 0.48914662 -0.47364479
