11

N -0.5782483 1.2676848 -1.448242
C 0.5139646 -0.6192907 -1.0759096
C -0.64839345 0.99456614 -0.008773643
N 0.24474359 -0.93798023 1.3627937
N 0.06922439 0.34908932 -2.0091755
C 0.11145514 -0.28397766 0.16680144
H 0.9438176 -1.664359 1.4102967
H 0.17594457 -0.38342378 2.2011106
H -1.7010014 0.90924424 0.28236824
H 1.0847557 -1.4706589 -1.4205921
H -0.2162622 1.8391057 0.5393218
