10

O 0.37544891 -0.59342747 1.09913447
C 1.08938671 0.44779716 -1.27573196
N 2.22019762 0.00356729 -0.32095295
C 1.03015625 -0.11384052 0.03396381
C -0.98854948 -0.47658176 1.13949627
N -1.63153811 0.29392884 0.38541503
H 0.94900785 1.51811112 -1.41775384
H -2.62543547 0.23514166 0.58931864
H 0.93502502 -0.17186770 -2.15870768
H -1.35369943 -1.14282868 1.92581796
