10

O -0.16613187 -0.80663186 1.0114148
C -1.3446811 -0.7718068 0.31457728
N 2.020371 0.18951823 0.95628715
C 1.5052147 0.77976876 -0.37558925
C 0.8604617 -0.06577151 0.5749913
N -1.6125731 0.11537864 -0.53211945
H -1.9521006 -1.616383 0.65110934
H 1.9435868 0.36877826 -1.2846409
H -2.5391836 -0.03871289 -0.92007995
H 1.2850366 1.8458623 -0.39595035
