11

N 0.01198536 0.94854317 0.95909472
C 0.82137627 -0.01899194 1.57343136
C -0.27789973 0.40506803 -0.18448762
N -1.02009521 0.99498727 -1.14267035
C 0.36554833 -0.95524845 -0.31329349
N 1.07281693 -1.11072346 0.95056007
H 1.21103573 0.18256806 2.56700133
H -1.38651840 0.45597708 -1.90735899
H -1.49466527 1.85249998 -0.90202372
H 1.06670532 -0.99880590 -1.15443250
H -0.37028933 -1.75587372 -0.44582076
