11

C -0.8794219 -0.8007411 -1.1913933
C -0.12712064 -0.06346789 -0.1416745
C -0.26337808 1.1333759 0.46904537
N 0.7593102 1.3039426 1.3967674
C 1.4457755 0.22024176 1.2988714
O 0.98363495 -0.66419774 0.39405742
H -1.2595923 -1.7526572 -0.8105176
H -1.7286822 -0.19617714 -1.520088
H -0.2474145 -1.0102476 -2.059097
H -1.0177984 1.8918823 0.31712088
H 2.3346875 -0.061953887 1.846908
