11

C -1.4874703 0.67076206 -0.32019493
C 1.5612634 -0.67570084 -0.6690025
C 0.42220262 -0.1984829 1.3951178
N 1.5626315 -0.12034236 0.55848575
C -0.5292484 0.10425997 0.5935969
O 0.6086253 -0.966405 -1.3847326
H 0.49452502 -0.3991473 2.4577262
H 2.5949485 -0.8483368 -1.0129263
H -1.4659766 0.12218581 -1.2634861
H -1.2808864 1.7326889 -0.49178222
H -2.4806144 0.5785185 0.13719803
