11

N -2.793201 -0.6696981 -0.17509916
C 0.91270083 -0.85615146 -0.9463143
C 0.088971 0.7831393 0.78622407
C 0.89185727 0.35435575 -0.40513793
C -1.8565761 -0.44759244 0.46950617
O -0.84135234 -0.23633845 1.2362062
H 0.7184464 0.9663978 1.6589422
H 0.33517358 -1.6838713 -0.54177487
H 1.4998223 1.1514435 -0.82673484
H 1.5201577 -1.0592911 -1.8225652
H -0.47599977 1.6976068 0.5667479
