11

N -1.7426816 -1.5746689 -0.9214034
C 0.2551024 -0.92032224 0.6286206
C -0.052124694 1.3147383 -0.12138283
C -0.84783745 -0.8902653 -0.5335054
C 0.9319531 0.28708273 0.20002289
O -0.4380238 0.41491866 -1.1994354
H -0.29859555 -0.8119337 1.5684105
H 0.30731714 2.2474642 -0.5520667
H -0.8643065 1.4589292 0.5981752
H 1.902977 0.31096107 -0.28445864
H 0.8462203 -1.8369039 0.61702317
