10

O -0.14852688 0.7449668 1.8585392
C -0.035369944 0.2449683 0.61586124
C -0.36088523 -0.29335624 -1.2949654
N 0.95279443 -0.8631793 -1.0631659
N -0.5660598 0.956216 -0.55916893
C 1.1569306 -0.5142864 0.15310353
N -1.1955718 -0.3029057 -0.09476895
H -1.0124769 1.1794046 1.9318588
H 2.0563135 -0.7440992 0.7119925
H -0.8471481 -0.4077288 -2.259286
