10

O -1.19643060 0.26747300 1.59003640
C 0.36686783 -0.12585350 -1.32015163
C 1.07940279 -0.13715005 0.66520602
N 1.56244006 -0.28017756 -0.51332158
N -0.82812920 -0.64353792 -0.65588563
C -0.38436490 0.09130892 0.53335905
N -0.58685605 0.81706945 -0.73173775
H 0.42204141 -0.19275230 -2.40270754
H 1.66663160 -0.17508515 1.57503219
H -2.10160322 0.37870505 1.26017043
