10

O 0.8224636 0.9327125 -1.7097545
C -0.018659486 0.81565166 -0.60566306
C 0.20752025 -0.4900083 0.121321335
O 1.0225289 -1.3005246 -0.26139584
C -0.61629665 -0.7874358 1.3646888
O -1.4408171 -0.020782156 1.7893535
H 1.3472537 0.118603595 -1.7452853
H 0.14015855 1.6359943 0.11157401
H -1.0797858 0.8614221 -0.8968757
H -0.38436586 -1.7656332 1.8320364
