10

O -0.09583732 0.18159858 -1.08527973
C -1.21533693 0.50559959 -0.32606061
C 0.89985208 -0.55581983 -0.42879099
O 1.46239520 0.09867828 0.66584799
C -1.45356993 0.17136676 0.91897230
O -1.72065084 -0.09727597 2.02533951
H 1.63389940 -0.77018271 -1.21430749
H 1.96507445 0.85932999 0.34254624
H -1.95739471 1.09995376 -0.85072510
H 0.48156872 -1.49324836 -0.04754247
