10

O 0.26995745 0.9495031 0.46696863
C 1.2911761 -1.1417423 0.7411045
C -0.69181406 0.9255813 -0.57872194
O -0.29032713 0.14680858 -1.6536555
C 0.38324156 -0.26766384 1.1315761
O 2.0844624 -1.932389 0.41423094
H -0.22594641 -0.45987377 2.0097961
H -0.7438175 1.9572859 -0.9307022
H -1.6623951 0.60896695 -0.16649434
H -0.4145371 -0.7864767 -1.4341023
