10

O 1.2554108 -1.3859723 0.98974615
C 0.36153406 -0.9485097 0.015658952
C -0.019390581 0.5004254 0.22076434
O 0.41960317 1.151796 1.1436896
C -0.9852955 1.1499565 -0.7593547
O -1.4549345 0.55300796 -1.6921718
H 1.409182 -0.63954717 1.5872542
H 0.7874551 -1.0487025 -0.9940853
H -0.5651982 -1.5441936 0.019290414
H -1.2083665 2.211739 -0.530792
