10

O 2.55780462 -1.30635124 0.04219004
C 1.62731414 -0.78139151 0.51109987
C 0.57250603 -0.21102726 1.06145504
O 0.06085464 0.96146261 0.51417806
C -0.97712547 0.72952156 -0.42807780
O -0.51355966 0.14761777 -1.59840065
H 0.14551095 -0.60824123 1.97754525
H -0.35764276 -0.79411600 -1.44516698
H -1.77209978 0.13812266 0.05199197
H -1.34356286 1.72440224 -0.68681493
