11

N 1.038537 0.13221994 1.7668078
C 0.3734375 0.058125813 0.5386047
C -0.9712404 0.12485884 0.2717296
N -1.0544071 0.06228475 -1.1114465
C 0.20798184 -0.026427733 -1.5860295
N 1.0969316 -0.037804436 -0.62060004
H 2.0096915 -0.12383867 1.6495502
H 0.6136543 -0.42361578 2.4958375
H -1.84358 0.22663379 0.8970768
H -1.8988578 0.08961117 -1.6575898
H 0.42785186 -0.082047634 -2.6439407
