13

N -1.26469509 -0.57617687 -1.07768494
C 0.33583306 0.06534617 0.63323375
C -0.50775337 0.55358161 -0.55520394
N 1.18811280 -1.01764047 0.19504468
C 1.17513667 1.15975241 1.15606719
N 1.81002661 2.01786632 1.60151762
H -1.61412898 -0.38143518 -2.00736525
H 0.61839628 -1.66536265 -0.33535749
H 0.18558731 0.90382466 -1.32881837
H 1.62332289 -1.48837627 0.98111602
H -1.12874986 1.40296878 -0.23234543
H -2.07056733 -0.76522846 -0.48575471
H -0.35052120 -0.20912003 1.45555052
