14

C -0.99335348 1.92318656 0.77360263
N -1.55471624 0.07499342 -0.54476775
C -0.37778524 -0.24422222 0.23137336
O -0.21581831 0.88088470 1.12879926
N -1.79579103 1.41495404 -0.14953064
C 1.96621857 -0.77367168 0.06707596
N 0.78034809 -0.27731765 -0.60276957
H -0.50448567 -1.14379542 0.85517663
H 1.86427467 -1.79221222 0.47855789
H -2.35330217 -0.48981649 -0.27810550
H -2.42099816 1.96286007 -0.71081313
H 0.59692516 -0.67733805 -1.50604140
H 2.20616186 -0.09451376 0.89136268
H 2.80232268 -0.76399125 -0.63392063
