11

C -1.4719232 0.79532355 -0.45030054
N -0.47844848 -0.090394 0.1230408
C 0.8416041 0.028013218 -0.123857014
O 1.389338 0.84725136 -0.8376332
C 1.672938 -1.0260831 0.6097923
O 1.1923426 -1.8626306 1.3296479
H -0.9479576 1.5173424 -1.0770445
H -2.182688 0.23343086 -1.066621
H -2.0178301 1.3282546 0.33558017
H -0.754029 -0.8347516 0.75029004
H 2.7566538 -0.93575644 0.40710494
