11

N -0.41715938 -0.55164635 -1.4604361
C 0.19421327 -1.2961334 -0.6399394
O 0.77252793 -0.8188585 0.47354898
C 0.6985488 0.594917 0.63050973
C -0.7294949 1.081274 0.8004035
O -1.0273541 2.2436361 0.7097337
H -0.7874449 -1.0955439 -2.2327008
H 0.3415857 -2.3772008 -0.6924026
H 1.1567397 1.1162696 -0.21368358
H 1.2581217 0.8083218 1.546692
H -1.4602836 0.29496443 1.0782744
