11

C -0.87997705 -0.7991824 -1.1908146
C -0.12625454 -0.06270962 -0.1421063
C -0.26328847 1.1345527 0.4703899
N 0.7600436 1.3020841 1.3981625
C 1.4467438 0.21959874 1.2993486
O 0.9839438 -0.66378075 0.39151603
H -1.2562321 -1.753635 -0.8116969
H -1.732013 -0.19726487 -1.5165464
H -0.2507152 -1.0054588 -2.0619419
H -1.0177647 1.8905425 0.31756896
H 2.335514 -0.06474665 1.8461201
