11

C 0.18274973 -0.13895279 -0.36162147
C -0.69617957 0.58383644 1.4809886
C 0.06191438 -0.9254798 -1.615588
N 0.5373532 1.0302502 1.3732514
C 1.1936629 0.5991988 0.1854705
O -0.9870502 -0.14566141 0.44696316
H -0.7305287 -0.5459134 -2.2724855
H 0.97852963 1.6220117 2.0616798
H -0.13783218 -1.9867244 -1.4250045
H 1.013735 -0.8454575 -2.1441
H -1.4163541 0.752892 2.2704456
