11

C 0.56858586 1.04209065 -0.69968015
N 0.22628903 2.20009212 -0.19384061
C 0.10131784 -1.42229492 -0.21165035
N 0.03397789 0.01042168 -0.02829543
C -0.61318224 1.96896131 0.91361502
N -0.69475792 0.62480476 0.96190054
H 0.72876956 -1.62619429 -1.08100544
H -1.20503078 0.06077235 1.62493844
H 1.20625048 0.87312429 -1.56030095
H 0.54514331 -1.90055820 0.66699741
H -0.89736289 -1.83121943 -0.39267841
