11

C 0.9379891 1.0901368 -0.77003545
N 0.08821041 0.13615268 -0.088083744
C 0.3788263 -1.0692946 0.42757398
N -0.69839376 -1.6107546 0.9637633
C -1.6396606 -0.6622195 0.7367148
N -1.2158691 0.41274515 0.10420027
H 0.5746713 1.2426133 -1.7888719
H 0.9221914 2.0404856 -0.23223498
H 1.9565088 0.6984724 -0.79622597
H 1.3659071 -1.5108633 0.39376026
H -2.6703808 -0.7674736 1.0494395
