11

C 0.3038861 2.1692379 0.5381018
N 1.1123203 1.8360491 -0.5664392
C 0.9183722 0.5732862 -0.8524849
N 0.03391372 -0.009713067 -0.02862264
C -0.5094677 -1.3478332 0.042100016
N -0.32739457 1.0118623 0.81686574
H -0.99551964 0.8346492 1.5519403
H 1.3882023 0.009385099 -1.6506761
H -0.2656609 -1.8100277 1.0036993
H -0.06384564 -1.9401392 -0.7589265
H -1.5948062 -1.3267566 -0.09555803
