10

C -1.221772 -0.38165444 -0.34970436
C -0.09213056 -0.8122426 -1.0432745
N 1.1351638 -0.43319064 -0.6987925
C 1.2215179 0.3806116 0.34884676
C 0.09183706 0.8127192 1.0444247
N -1.1352932 0.43406373 0.6987323
H -2.2172892 -0.7034059 -0.64842504
H -0.18158515 -1.4785582 -1.8980244
H 2.2177687 0.7020921 0.64696735
H 0.18178296 1.479565 1.8992498
