10

O -0.035342142 0.8007793 -1.6701772
C 0.7408392 -0.1295695 1.0203454
C -0.5672781 0.5227259 -0.47757626
O -0.22635205 -1.1287521 1.0286461
C -0.8214434 -0.89905804 -0.19303918
O -1.453414 -1.704076 -0.8166241
H 1.6283321 -0.3491149 0.43112618
H 0.021888187 0.91972995 0.54575515
H 0.9502094 0.24835047 2.0237532
H -0.23743956 1.7189847 -1.8922095
