10

O 0.89780869 -0.90257162 -0.30374469
C -0.43542628 -1.19624410 -0.73278205
C 1.07379983 0.15939074 0.48247016
O 2.16326001 0.48616187 0.88789734
C -0.11781940 0.86412331 1.05731294
O -0.30468288 1.96353070 0.36520777
H -0.37912058 -2.16204303 -1.23641250
H -1.11730552 -1.25951622 0.11833605
H -0.78029111 -0.43353473 -1.43931928
H -1.00022289 2.48070274 0.80103445
