10

O 0.9517347 -0.860164 0.25937557
C -0.95859987 0.58037555 0.7891462
C 0.3615365 -0.04216036 1.1308151
O 0.76657534 0.095406815 2.2600152
C 0.39336193 -0.94258237 -1.0556374
O -0.73597604 1.8276913 0.4467047
H -0.67504513 -1.1668047 -1.0156953
H 0.56442726 -0.005720751 -1.5968205
H 0.92506987 -1.7544074 -1.5534409
H -1.5930848 2.2683659 0.33553725
