10

N 1.45013446 0.80243396 0.80236612
C 0.47820559 0.08108790 0.22320386
O 0.74647927 -1.19808604 0.11441348
N -0.62438762 0.69786401 -0.17510546
C -1.56812991 -0.08047314 -0.74798925
O -1.51050357 -1.30592570 -0.94632128
H 1.28914037 1.78105399 0.96471310
H 2.27553004 0.34792053 1.15300965
H -0.06688282 -1.59351871 -0.32824147
H -2.46958586 0.46764279 -1.06004858
