10

N 1.6568049 0.50789964 -0.69251657
C -1.471623 -0.43513325 0.6673935
O -1.5814816 -1.2439764 1.638672
N -0.19572322 -0.3047468 0.39145505
C 0.30225834 0.5273158 -0.6323746
O -0.40791854 1.1876425 -1.3604736
H -0.2847509 -1.1559992 1.4143884
H -2.3057125 0.054696646 0.16929287
H 2.0920622 0.999662 -1.4549514
H 2.1960843 -0.13736096 -0.14088576
