10

N -0.8087572 0.2969573 -0.406527
C 0.48564187 0.13371404 -0.17705464
O -1.3373927 -1.1154419 1.3600577
N 1.36761 0.77083355 -0.96230984
C -1.6479492 -0.3667393 0.4180442
O 1.0310279 -0.6049629 0.7594295
H 1.0179477 1.3953614 -1.66777
H 0.2518926 -1.0057104 1.255633
H 2.3531744 0.69727916 -0.7777461
H -2.7131953 -0.20129092 0.19824313
