11

O 1.1899985 -0.82188886 0.10321372
C -1.1704069 -0.17863435 -0.14315765
C 1.2837831 0.6038384 0.09055693
C 0.2453456 -0.08707674 -0.6672322
O -1.1921237 -0.19005872 1.2638468
H 2.157086 0.9960599 -0.42925623
H -0.5081948 -0.8189858 1.5336086
H 0.36434084 -0.19627014 -1.745479
H 1.0223471 1.0816501 1.0321143
H -1.7462943 0.69080347 -0.47560108
H -1.6458812 -1.0794373 -0.56261414
