11

O 0.051423687 -0.7832085 1.4693637
C 0.24116457 -0.112002686 -1.268052
C 0.02453987 0.5899758 1.1615604
C -0.5926145 0.35336074 -0.14933024
O 0.2135061 -1.4386048 -0.8127888
H -0.6059198 1.148083 1.8624098
H 1.2418725 0.34643266 -1.2738737
H 1.0190488 1.0577052 1.089762
H 0.29375884 -1.3220011 0.37489182
H -0.22065 -0.023106055 -2.2562072
H -1.6661301 0.1833659 -0.19773544
