10

O 0.4095873 -1.8815453 -0.18757546
C -0.0910277 -0.5908866 -0.408276
C 0.95968854 0.4963871 -0.41443187
N -0.67668223 1.1146616 0.8079851
C -1.1330832 -0.08493415 0.57160324
N 0.5868193 1.5239929 0.2449451
H 1.8993895 0.48483694 -0.95398754
H -1.1044191 1.8093026 1.4034284
H -0.2553245 -2.3477616 0.33251467
H -0.5949479 -0.52405334 -1.3962059
