10

O 1.2302874 -0.5926687 1.497248
C 0.37116253 -0.19725049 0.5195579
C -0.47894153 -1.0520947 -0.2773973
N -0.39519426 1.1251937 -1.1213379
C 0.4036617 1.1134529 -0.09324531
N -0.9091127 -0.12851053 -1.1914843
H 0.9663731 1.9883107 0.20580795
H -0.8282947 -0.39709494 0.87688607
H -1.602175 -0.2988964 -1.9018805
H 1.2422335 -1.5604416 1.4858451
