9

O -2.00391962 -0.42053503 0.81208331
C 0.06917061 0.69927015 -1.70385465
N -0.97494412 -0.61525109 1.40850859
O 1.36190374 -0.52933945 1.43686739
C 0.24579128 -0.27934548 0.71078086
C 0.23082873 0.21745741 -0.50635689
H 0.03595739 0.04556321 -2.57368287
H 1.06765386 -0.88801581 2.28761300
H -0.03244191 1.77019589 -1.87195871
