11

C 0.14325339 0.16370048 0.88107026
N 0.49331626 0.31974545 2.0761485
C -0.663263 0.47335428 -1.1960337
O -0.35715368 -0.8843898 -1.1071559
C 0.5248042 -1.0016135 -0.006287682
O -0.6297638 0.9990573 0.12931049
H 0.07420918 1.0169951 -1.8068422
H -1.6695747 0.5929579 -1.5978125
H 1.576453 -0.9095688 -0.31311658
H 0.1370738 1.1938972 2.4567077
H 0.37064543 -1.9641354 0.4840122
