11

C 0.65370333 0.55201966 -0.79467976
C -0.10686551 -0.17596278 0.04554776
N 0.45433995 1.9067142 -0.4795837
C -0.37563154 1.9605627 0.60595196
C -0.43938935 -1.6191093 0.14962421
O -0.69026816 0.67170423 0.9419075
H -0.18935037 -1.9933761 1.1465945
H -1.5123851 -1.7682388 -0.008583957
H 0.114872985 -2.1881385 -0.5974926
H 1.276838 0.23774168 -1.61926
H 0.814136 2.4160826 0.6099737
