11

C 0.97043055 -1.3177084 0.5486273
C -1.0904058 1.6831678 0.7692086
N -1.0853499 1.4818326 -0.561224
C -0.3469971 0.36016965 -0.9460943
C 0.12217175 -0.14867249 0.20303084
O -0.3301654 0.65065396 1.2247996
H 1.8725995 -0.9968738 1.0805663
H -0.23514977 0.049143627 -1.9710758
H 1.2696884 -1.847626 -0.35745028
H -1.5762539 2.0973294 -1.1895742
H 0.4294318 -2.0114162 1.1991857
