11

C 0.50980896 -0.96319824 1.5014541
C 0.16455844 -0.12376686 0.3203333
N 0.6335876 1.033011 -0.00850975
C -0.03289594 1.3577315 -1.183531
C -0.8783865 0.35917273 -1.5000389
O -0.7633016 -0.60465366 -0.54135317
H -0.3830105 -1.1925918 2.0905983
H 1.2178926 -0.41602093 2.1259005
H 0.96318775 -1.9103317 1.1958152
H 0.15084077 2.286844 -1.7049819
H -1.5822816 0.1738042 -2.2956865
