10

C 0.81134164 0.21763021 -0.7738121
C 0.48520342 -1.00063 -0.0017181642
N -0.37573543 1.006138 -1.1098105
C -0.4396222 -0.16846915 0.8194943
C -1.140544 0.76212084 -0.12237053
N 1.0154175 0.16063559 0.69742733
H 1.6975905 0.318061 -1.3919698
H 0.87617654 -2.0044634 0.08947028
H -0.79478246 -0.47051778 1.7970151
H -2.1350455 1.1794946 -0.0037259685
