9

O 1.5833392 -0.27938488 -1.5382252
C 0.62061656 -0.14752589 -0.61226267
N 0.3514059 0.9943382 -0.015531044
N -0.66765285 0.62508553 0.8048736
C -0.93567616 -0.6785933 0.65158427
N -0.13290146 -1.2108388 -0.24680638
H 1.989917 0.58830774 -1.656922
H -1.1002697 1.3043747 1.4098065
H -1.7087785 -1.1957635 1.2034831
