10

N 0.70101494 0.7971759 1.7340766
C -0.44962516 -0.64482695 -1.076156
N 0.5232408 -0.55542535 -0.22064644
O -0.5246575 -1.4365284 -2.1340032
C 0.015840683 0.40880775 0.6141783
O -1.4802963 0.14143474 -0.8720964
N -1.1633592 0.88495153 0.2983778
H 0.2852751 -1.9664974 -2.136358
H 1.7019124 0.70615613 1.6505718
H 0.39065397 1.664752 2.1420555
