10

N 0.22544862 1.7659633 0.3957636
C -0.20184754 0.4793972 0.16385879
N -1.4025302 0.049947716 0.35766485
O -1.3363926 -1.3376715 0.101816244
C -0.07935768 -1.6969216 -0.26038966
O 0.28277612 -2.8081617 -0.52446145
N 0.6465163 -0.51528925 -0.25084016
H 0.7500992 2.1765962 -0.36500466
H -0.53540826 2.3654773 0.6843229
H 1.6506959 -0.479338 -0.30273056
