10

N -1.5354222 -1.4223899 0.7504819
C -0.6800525 -0.6415402 0.26320803
C 0.14107482 0.33340394 1.0091999
C 0.9242749 0.9637898 0.1373015
C 0.6374055 0.4206291 -1.21838
O 1.1077455 0.696976 -2.2794986
O -0.3428355 -0.5455845 -1.0717068
H -1.9702737 -1.9954929 0.028764313
H 0.057756636 0.45035806 2.0800612
H 1.6603268 1.7398509 0.30056846
