11

C -0.04157801 -1.8241216 -1.3075515
N 0.19662587 2.0986502 1.2864903
C -0.115233175 -0.28791422 0.4084312
C -0.010452805 0.9894074 1.0143716
N 0.06444305 -0.45717335 -0.85505325
N 0.51754266 3.2335427 1.6243014
H -0.055351947 3.878049 1.0721352
H 0.9017962 -2.1108844 -1.7873838
H -0.2683415 -2.5474372 -0.50600886
H -0.3643035 -1.0878963 1.1217711
H -0.82514673 -1.8842217 -2.071504
