11

C 0.25591196 0.31254112 1.61278384
C 0.00378333 0.04701167 0.17427680
N 0.69308507 -0.70428464 -0.66330995
C -0.89997562 0.09557974 -1.79421217
C 0.16219280 -0.72843865 -1.99165766
O -1.00090719 0.57605184 -0.45812668
H -0.60560744 0.00706475 2.21285956
H 1.13685292 -0.23829106 1.95043430
H 1.52117314 -1.21457668 -0.39095748
H 0.42173203 1.38071494 1.77767720
H -1.68824098 0.46662676 -2.42976805
