11

C 0.51118976 -0.96368665 1.5000058
C 0.1663374 -0.12421266 0.31940532
N 0.63301444 1.0346575 -0.008675058
C -0.034883134 1.3592379 -1.1819037
C -0.8799723 0.3590338 -1.499164
O -0.76195294 -0.60658866 -0.54272044
H -0.3821948 -1.1943148 2.0882702
H 1.2194632 -0.41795042 2.1261184
H 0.96437967 -1.9113622 1.1939449
H 0.14874622 2.2896917 -1.7011678
H -1.5841275 0.17549428 -2.2941139
