10

O 0.9832486 0.7332513 1.5878031
C 0.39280146 0.090280645 0.5385888
C -1.1168907 -0.70957255 -0.8040571
N -0.49134073 0.23598643 -1.5061053
N 0.37020385 0.7988193 -0.6909953
C -0.71404666 -0.8448661 0.5703121
H 0.52833825 0.41383088 2.3798585
H 0.9047523 -0.9146629 0.26605952
H -1.8957046 -1.2728225 -1.3038362
H 1.038638 1.4697558 -1.037628
