10

O 1.47765693 0.26185097 -1.24917316
C 0.67410927 0.64472682 1.04829170
C 0.65581378 -0.13723843 -0.21140579
N -0.77901472 -0.24714489 -0.58563062
N -1.51556189 0.14943575 0.39059223
C -0.69235695 0.66761309 1.34407605
H -1.20506975 -0.79541759 -1.32034491
H 0.89153852 -1.14818785 0.18977916
H 1.66958236 -0.48996001 -1.82044284
H -1.17669738 1.09432199 2.21425797
