12

N -0.30847842 -1.5408962 -0.12016854
C -1.1445994 1.1150291 0.16939788
N -0.87101066 0.46828058 1.2424203
C -0.56709146 -0.897221 -1.1994615
C 0.19947582 -0.2947294 0.5290877
C -0.14641863 0.5007905 -0.78848743
N 1.3840507 -0.45740566 1.252586
H 2.0928862 -0.97784644 0.7518477
H -1.0008006 -1.3062348 -2.1098406
H -1.9150121 1.8735156 0.049784716
H 0.5252161 1.1068801 -1.400844
H 1.7517828 0.40983745 1.6236775
