12

N 2.1676013 0.39448363 -0.6971908
C 0.8859987 0.16486375 -0.28182462
N 0.70809644 -0.84358346 0.5849373
C -0.5400947 -1.02466 1.0051829
C -1.6088847 -0.24123952 0.5876967
C -1.2927824 0.76488066 -0.32097295
N -0.061949056 0.9825638 -0.76831347
H 2.2880328 0.9711094 -1.5135279
H 2.8330786 -0.34363255 -0.5321374
H -0.69235903 -1.8433412 1.7082912
H -2.619728 -0.4059761 0.93963003
H -2.0670094 1.4245316 -0.7117709
