14

C -2.3946083 -0.07651066 0.9716172
N -1.3506632 0.1406026 -0.012564614
C -0.03308498 0.038551584 0.34664127
O 0.35679966 -0.07512028 1.4931012
N 0.8440138 0.104560286 -0.73352116
C 2.215755 0.0041848207 -0.5933631
N 2.9644413 0.11317975 -1.6142337
H -2.0394595 0.29044405 1.9348909
H -2.652447 -1.1380434 1.076617
H -3.2891707 0.48069265 0.6824198
H -1.5949159 -0.020680884 -0.9775031
H 0.51656073 0.30100745 -1.6693412
H 2.5203137 -0.17125283 0.4387445
H 3.9364655 0.008384916 -1.3435051
