10

C -1.0844572 0.24429314 -0.2523059
C -0.31831852 -0.5967909 -1.0493476
N 0.94901806 -0.8895527 -0.76430255
C 1.4448023 -0.32562658 0.3360173
N 0.81144154 0.4933897 1.1733259
C -0.45499572 0.7716603 0.86900616
H -2.1146793 0.4749945 -0.4906611
H -0.73251194 -1.0530685 -1.9473886
H 2.4799564 -0.55885077 0.5775837
H -0.98025525 1.4395516 1.548073
