10

C -0.0434821 -1.2155288 -0.62617064
C -0.057660438 0.3514777 1.1627735
N 0.44978544 0.9869156 -1.0007999
C 0.05552575 1.4109998 0.15826032
N -0.21307464 -0.86741465 0.77581084
C 0.90810156 -0.17398156 -1.2313004
H -0.15982346 0.5548713 2.2276723
H -0.30795413 2.4227366 0.3013111
H -1.0360336 -1.2564927 -1.0966458
H 0.40461552 -2.213583 -0.6709112
