12

O -1.3268385 1.538151 -1.2799882
C -1.4692687 0.87561566 0.22625616
C 1.0591 -1.4385687 0.96388185
N -0.13040785 -0.96001166 1.2557025
N 0.7090283 0.14057934 -0.5420738
C -0.30715513 0.00755287 0.30262566
N 1.5748353 -0.8110243 -0.10162808
H -1.3003068 2.159404 -0.43454146
H 1.5741246 -2.2279205 1.4956135
H -2.4297 0.37152544 0.21152307
H -0.4196824 1.2830014 -1.5450553
H 2.4662704 -0.93830436 -0.5523158
