12

O 1.2252074 -1.4208894 -1.2702254
C -1.2480204 1.144488 1.1351041
C -0.23275207 0.1687273 -0.42616525
N 0.52606654 -0.07031705 0.652553
N -1.3450915 0.92717975 -0.15931655
C 0.17137049 -0.32158977 -1.7187245
N -0.15886442 0.5540719 1.64312
H 2.0678542 -1.1111902 -1.6390035
H -1.9249035 1.7297812 1.7408854
H 0.22116292 0.6129232 2.57207
H 1.2836097 -1.32799 -0.2729646
H -0.5856394 -0.88519484 -2.2573323
