11

O -1.8746312 -0.08746008 -0.09876016
C -0.62297 0.49816266 0.08551215
C 0.2750603 0.07494063 1.265357
O 1.3678212 -0.18390155 0.33882162
C 0.5411694 -0.002263441 -0.74357754
N 0.6955405 -0.2651857 -1.9595861
H -1.7482617 -0.9435011 -0.5272489
H -0.74865854 1.5825605 0.024725564
H 0.548254 0.8397778 1.9939322
H -0.049932323 -0.8459504 1.7573035
H 1.6166084 -0.6671795 -2.1364791
