11

N 0.81070281 -0.09276830 -1.00636282
C -0.21115590 -0.72231662 -0.56234679
N 0.84112607 1.04183301 -0.19062262
N -0.79882400 -1.82430529 -1.10309108
C -0.07382107 0.94415226 0.84389393
N -0.31623377 1.63060643 1.87833957
O -0.81590525 -0.17349540 0.52406353
H -0.22538501 -2.27556821 -1.79857134
H 1.73818448 1.48206078 -0.07541285
H 0.30009967 2.43524328 1.93926290
H -1.24878819 -2.44544195 -0.44915214
