11

N -0.815303 2.3627796 0.19898272
C -0.3527594 1.2164567 -0.069453955
N -0.2584034 -2.1714897 0.63315064
N 0.86332947 -0.6116814 -0.7477428
C 0.0063844114 -0.9275904 0.14865176
N 0.5657234 0.7331036 -0.98578
O -0.7753544 0.08790036 0.601285
H -0.57607096 -2.2101705 1.5889256
H 1.3176657 1.2979556 -1.3425889
H 0.44700113 -2.8484695 0.3876591
H -0.4222129 3.0712056 -0.413089
