11

N -1.6171002 -1.5779734 0.85612667
C 0.6500465 0.59289074 -0.47776288
N 1.3655316 -0.14799069 0.2973968
N 0.41438463 -0.8773372 1.0044789
C -0.77442616 -0.63001347 0.5069045
N 1.0598875 1.488875 -1.4229393
O -0.7211711 0.38547254 -0.38842276
H -2.58514 -1.3562949 1.0701345
H -0.30354503 -1.8811324 1.4268328
H 0.46832204 2.3004117 -1.5238456
H 2.0432103 1.7030922 -1.3489038
