11

C 0.59627163 0.73246914 2.2424695
C 0.30731162 0.16688548 0.926782
C 0.076269254 -0.31453997 -0.1527958
C -0.14454657 -0.96886176 -1.4416708
O 0.3298094 -2.0524077 -1.7156931
N -0.93917185 -0.26292136 -2.2966802
H 0.46056837 -0.021575317 3.0208983
H -0.063111566 1.5768527 2.462682
H 1.6314194 1.0832669 2.2864661
H -1.0391423 -0.623814 -3.232546
H -1.2156775 0.6846461 -2.0999117
