9

N 1.5492451 -1.2230157 1.7274373
C 0.9543657 -0.40233555 1.1735959
O -0.2961529 -1.0967715 -1.2172714
C -1.4405907 -0.6490421 -0.71225953
O -1.1106286 0.30262136 0.17655729
C 0.19830036 0.64346564 0.5034223
N 0.6755663 1.7935557 0.342168
H -0.5242622 -1.7675288 -1.8749098
H -0.0058433204 2.3990507 -0.11873975
