9

N -0.6936335 -1.7276456 0.7229922
C -0.039630346 -0.7576539 0.264119
O -0.46023354 -0.010052898 -0.815124
C -0.3115077 1.3513786 -0.7826238
O 0.06232937 1.9783161 0.15983681
C 1.2850479 -0.4664609 0.78764206
N 2.3515563 -0.28589267 1.1907688
H -1.5828983 -1.8272089 0.23429437
H -0.6110298 1.7452204 -1.7619053
