9

N -1.2091835 1.4529607 -0.5435859
C -0.74737465 0.19518374 1.3982093
O 0.4009805 -1.676601 -0.4290712
C 1.2972919 -0.76807636 -0.53125346
O 0.92090136 0.4928955 -0.3110054
C -0.4026933 0.7334038 0.094854176
N -1.0055358 -0.2156647 2.4455636
H 1.5472986 -1.9702325 -0.69516546
H -0.8016851 1.7561309 -1.4285458
