10

O 0.79143394 -0.65766264 0.12846881
C -0.00439913 -0.20246896 1.56699002
C -0.29946869 -0.77383322 -0.85009106
C -0.66166209 0.68889782 -0.59543209
O -1.40797797 1.47901897 -1.08997954
C 0.39545445 0.73546834 0.48431828
H 0.12517063 -0.97549936 -1.83835324
H 1.20183775 1.47104104 0.49536011
H -1.01558541 -1.53215279 -0.53669522
H 0.87519626 -0.23280907 2.23541372
