10

N 0.4563685 0.17513378 0.820384
C 0.2326935 -0.24103971 -0.42134005
O -0.8761758 -0.08674468 -1.1067284
N 1.2157665 -0.8759141 -1.0718639
C -0.5737121 0.8055229 1.4211787
O -1.6996704 1.0450524 0.9433625
H 2.061936 -1.0878706 -0.57160974
H -0.35995024 1.1296496 2.4506137
H -1.4975573 0.40889758 -0.48536023
H 1.0403017 -1.2726872 -1.9786364
