10

N -1.596348 0.4810185 -0.84787214
C 1.4125485 -0.48740056 0.7578208
O 0.53467745 0.69624615 -1.6285897
N 0.15959308 -0.23921019 0.44601756
C -0.24465366 0.35535014 -0.7646634
O 1.4280666 -1.023119 1.9065791
H 2.2923336 -0.27645886 0.15421624
H 0.15662278 -0.80180395 1.6607236
H -1.9608119 0.99259675 -1.6336405
H -2.1820285 0.30278087 -0.050591588
