11

C 1.1405452 -0.620351 -0.031967036
C -1.3072606 0.20072187 0.5767515
O 0.24560423 1.2240732 -0.9749738
C -0.00021824885 0.2796251 -0.12909654
O 2.161607 -0.22099625 -0.69418085
H -1.332029 1.0018494 1.32347
H -1.4201953 -0.7598208 1.0861291
H 1.1845707 -1.3043122 0.83004975
H -2.1353168 0.35908267 -0.11878667
H 0.21246679 -1.1581172 -0.7012785
H 1.2502263 0.9982453 -1.1661167
