11

C -0.41010776 0.9168948 -1.1533633
C -0.07228402 -0.3333859 -0.37815735
O -0.05235611 -1.4382483 -0.8771058
C 0.2785944 -0.18503278 1.0921597
O 0.65447587 -1.4014214 1.6536937
H 0.5167228 1.3385653 -1.5591044
H -0.8707178 1.6812348 -0.51813847
H -1.0691 0.6759099 -1.9904227
H -0.6011834 0.24003807 1.6035107
H 1.0837284 0.5616201 1.182298
H 0.5422278 -2.0561748 0.9446301
