11

C -0.7857261 -0.64201874 0.4359874
C 0.64354265 -1.285547 -1.0702988
C 0.13774803 0.50622237 0.08336032
N -0.32234818 -1.7517649 -0.40403318
C 0.19935533 1.7526097 0.5192102
O 1.0096765 0.018931849 -0.8802189
H -0.7235802 -0.91895986 1.4941512
H 1.239829 -1.8156127 -1.8047332
H -0.50173926 2.0971146 1.2707603
H 0.9372029 2.4537342 0.1446166
H -1.8339604 -0.41470903 0.21119793
