11

C 0.54588026 -1.16407114 -1.24870769
C -1.05482707 -0.01810346 -0.32657427
C 0.54427343 1.03851527 1.41640918
N -0.69610041 -0.97666601 -1.37746115
C 0.25097715 0.25851486 0.39033969
O 1.21559234 -0.50088487 -0.25698235
H -1.81216828 -0.45130393 0.33602725
H -1.48116002 0.88655223 -0.77471872
H 1.16969353 -1.81186618 -1.85462808
H -0.23670047 1.61917146 1.89386386
H 1.55453976 1.12014192 1.80243249
