11

C -0.3748479 0.022358287 -0.20347217
C 0.14725904 -0.6510308 0.94599646
C 1.1060203 1.2399249 0.84942895
N 1.0623565 0.18800017 1.5791451
C -1.1440231 -0.44141406 -1.2824059
O 0.28537786 1.2302647 -0.24757712
H -1.7542017 -1.3247097 -1.1529248
H -1.175127 0.12761097 -2.2029593
H -0.1695066 -1.6066388 1.3402088
H 1.7091395 2.1256106 0.98551995
H 0.3075532 -0.90997624 -0.61096
