11

N 0.13433228 0.24222368 -1.2347292
C -0.37847546 -0.5349863 -0.29091704
C 1.5924302 1.6830051 0.6503496
N 1.0440019 0.6686628 1.1135297
C 0.41159984 -0.44645685 0.91418797
N -1.5425628 -1.2971089 -0.44670007
N 0.8073171 1.0554237 -1.6979578
H -2.3881934 -0.7466692 -0.55058134
H 1.2861892 2.6312416 1.1074406
H -1.4844241 -1.9906946 -1.180668
H 0.5177852 -1.2646412 1.6160457
