11

O 1.6311574 1.265756 -1.247867
C -0.6484375 -1.1087965 -0.16210371
N 0.28044787 -0.59532696 -1.0846457
C 0.15325844 0.8734936 0.70157576
C 0.8139248 0.6005194 -0.6532234
C -0.76562166 -0.30319792 0.89552295
H 0.53200954 -1.0209785 -1.9620066
H -0.36775443 1.8357799 0.6672353
H -1.1486228 -2.044172 -0.37530088
H -1.4075998 -0.46317974 1.7482774
H 0.92723835 0.96010244 1.4725361
