11

O 1.2564007 -0.6586858 -2.1055393
C 0.62505716 -0.34812483 -1.1157755
N 1.1403611 0.03481665 0.099681966
C 0.12782958 0.34063917 1.0809978
C -1.13824 0.09295679 0.30576673
C -0.86084855 -0.29439688 -0.9368574
H 2.1322458 0.08450657 0.26153433
H 0.18924436 1.3791859 1.4306958
H 0.19375166 -0.3108866 1.9621978
H -2.118164 0.22579205 0.7511165
H -1.5476376 -0.545803 -1.7338187
