11

N 0.2714326 1.801686 -0.59964776
C -0.95678854 -0.3649461 -0.5887204
C -0.9173928 -1.5548122 0.061748244
N 0.28944892 -1.2785304 0.9642999
C 0.10513928 0.53310394 -0.13539205
N 0.8807304 0.0382431 0.7839772
H 0.0049182097 -1.3839087 1.9388772
H 1.133122 2.2671192 -0.37069827
H -1.6767681 -0.08552351 -1.3502179
H 0.99882054 -1.9916078 0.7916768
H -0.1326624 2.0191762 -1.4959028
