11

N -0.3581336 0.4942415 1.9629464
C -0.15515448 0.18268035 0.6127978
C 0.52567154 -0.8684118 0.05369559
N 0.34377667 -0.7143853 -1.3132391
C -0.42164922 0.38521343 -1.4942948
N -0.73783344 0.95639783 -0.35684648
H -0.7478487 1.4242 2.0440953
H 0.47602838 0.41545796 2.5280604
H 1.0868694 -1.6896875 0.47015846
H 0.709262 -1.3148273 -2.0322783
H -0.72098845 0.72912073 -2.4750955
