11

N -0.338141 0.10868612 -1.1656417
C -0.46540752 -0.8074652 0.13134354
O -1.4675148 -0.22981274 0.7348415
C -0.10475982 1.1832265 -0.39710644
C 0.9325526 -0.4038549 0.6837548
O 0.8427305 1.0348121 0.48763558
H 1.7689706 -0.79698616 0.1043267
H -0.47397003 2.199943 -0.5265274
H -0.52516645 -1.8782041 -0.13906132
H -1.217205 0.15477216 -1.6680366
H 1.0479107 -0.5651168 1.7544713
