12

C 0.556143 -0.64700985 -1.8478426
C -0.08144992 -0.742233 -0.47878394
O -0.6067926 -1.7455622 -0.048278015
N 0.011144381 0.4193891 0.26967058
C -0.4741229 0.5390294 1.5652375
N -0.34601837 1.6431541 2.175336
H 0.13532203 -1.4244933 -2.4864259
H 0.39936692 0.33323985 -2.3097217
H 1.6360868 -0.81666297 -1.7589351
H 0.45196706 1.2431489 -0.11786056
H -0.93512404 -0.38008255 1.9310879
H -0.7465223 1.5780822 3.1065156
