12

O -0.22917759 0.73518961 -2.18012831
C -0.61865201 -0.46618887 -1.58720443
C 0.66089289 0.45774845 1.79780636
C -0.25023058 -0.52040976 -0.12521040
N 0.30620278 0.48651040 0.39579556
H -0.14409763 -1.32033936 -2.09469009
H 0.14856196 1.27974102 2.30924068
H 0.16961007 1.25301903 -1.46255929
H 1.73623038 0.63831052 1.89391797
H -1.70746346 -0.61325011 -1.67303157
H 0.40766757 -0.48863753 2.29863919
H -0.47954434 -1.44169350 0.42742428
