12

O -0.54004544 0.61796683 -1.7008832
C 0.18994072 1.1708229 -0.6342363
C 0.36401638 0.16128422 0.48616403
C -0.71387225 -0.78616625 0.8365044
N 0.4189827 -1.2215976 0.0169058
H -0.23333964 -0.30017966 -1.7637696
H -0.36105222 2.047201 -0.27358794
H 1.1842853 1.5122255 -0.9624771
H 1.048181 0.45547864 1.2806128
H -1.6590506 -0.7328252 0.30651647
H -0.7751915 -1.1416113 1.8631237
H 1.0771456 -1.7825992 0.5451269
