11

N 2.02608201 0.66140078 0.45316694
C 0.84121595 0.30205693 0.22664518
C -1.34603065 -0.25535688 0.50493104
C -1.06920783 -0.75579599 -0.85261313
C 0.31364942 -0.27187796 -1.07017389
O -0.19553041 0.37904412 1.10028650
H 2.12629105 1.02104560 1.40027728
H -1.66167304 -1.09642513 1.13773785
H -2.18474365 0.45519063 0.47210756
H 0.16488348 0.54018235 -1.80889023
H 0.98506378 -0.97946446 -1.56347462
