11

N 2.1512263 0.32773972 0.11239046
C 0.90232545 0.17742006 0.06768732
C -1.2749076 -0.80552197 -0.40881187
C 0.15025176 -0.797156 -0.8121161
C -1.3161821 0.31243423 0.5495548
O -0.010684168 0.8768918 0.7896097
H -1.7335349 -0.047749367 1.5001098
H 0.09898724 -0.40774372 -1.8479757
H -1.9940509 1.0936246 0.17588365
H 2.4105506 1.0516391 0.77956724
H 0.6160184 -1.7815785 -0.9058994
