11

N 1.346022 0.57036006 1.8401206
C 0.6397052 0.26716098 0.8355463
C -0.76826686 -0.17689593 0.8545098
C -1.1567774 -0.39762723 -0.39702976
C -0.012198721 -0.10922166 -1.3248652
O 1.057333 0.29614082 -0.4675285
H 2.283558 0.8464253 1.5525478
H -1.3309934 -0.28209382 1.7716498
H -2.1299176 -0.7298339 -0.74021316
H -0.23158735 0.70322436 -2.0274305
H 0.30312324 -0.987639 -1.8973067
