9

O 0.38665979 -1.38209572 -1.07844582
C 1.17703283 0.78497942 -0.33865986
N -0.95736742 0.51595698 1.42433370
N 0.20788111 1.07781051 -1.10267939
N -0.89560130 -0.39010525 0.57965864
C 0.16906069 -0.22132605 -0.38326590
H 2.13049739 1.18787901 -0.03049481
H -0.44782848 -1.87067544 -1.08988456
H -1.77033462 0.29757663 2.01943781
