12

O -1.2617742 -0.66139126 1.2330796
C 0.12662823 -0.48574278 1.182233
C 0.5857685 0.70367354 0.34417012
O 0.85386825 0.40434194 -1.0471824
C -0.14932458 0.02639658 -1.8233055
O -1.2887403 -0.19036227 -1.4832554
H -1.5816315 -0.63038474 0.3163314
H 0.65834135 -1.3863107 0.83145493
H 0.4509402 -0.29894984 2.2125096
H 1.5534328 1.0721828 0.69111675
H -0.15760638 1.5038428 0.40018663
H 0.21009758 -0.05729623 -2.8573387
