12

O -0.56062646 0.99270767 -0.30810363
C 0.67551177 -0.54348434 0.84546107
C 0.47655332 0.95406637 0.65792058
O 0.42263676 -1.03870126 -0.45586627
C -0.42712881 -0.13513623 -1.13278423
O -1.65816909 -0.66116210 -1.43404886
H -2.12665027 -0.81295738 -0.60165525
H 1.69091188 -0.82765485 1.13509650
H -0.03979591 -0.95634583 1.56936268
H 1.38579214 1.43064946 0.26832000
H 0.13416077 1.47653848 1.55386637
H 0.02680386 0.12147986 -2.09756893
