10

N -0.15749492 -0.7483557 -0.84635586
C 1.0596353 -0.285971 -0.42041114
C 0.83679813 0.5950279 0.6088742
C -0.57145005 0.6641311 0.8098028
C -1.1573964 -0.17620592 -0.10275437
H -0.29613787 -1.4132426 -1.5877182
H 1.9761001 -0.6213093 -0.8833258
H 1.5917089 1.1351396 1.1629444
H -1.0869595 1.2664934 1.5442103
H -2.1948032 -0.41570747 -0.2852664
