10

N 0.7780064 1.0834411 0.060545478
C -0.36631265 -0.6528492 -0.8714893
C -0.36848056 -0.8891932 0.50265795
C 0.29521123 0.5565656 -1.0858572
C 0.31506184 0.18623894 1.0905875
H -0.18341568 1.3461354 0.8399558
H -0.82448274 -1.2727289 -1.6326351
H 0.7349696 0.27771518 2.084456
H 0.41992113 1.0954859 -2.0161848
H -0.8004786 -1.730811 1.0279634
