11

O -2.13216749 1.38330153 -0.02375994
C -0.42598078 -0.31145550 0.57356955
C 1.44874957 -1.37084922 -0.28986945
N 1.00636614 -0.38234865 0.35907015
C -0.44418595 1.91467269 -0.85990632
C -0.95586832 0.95672243 -0.01021473
H -0.99877844 -1.14961754 0.13926612
H 0.81155766 -2.17586009 -0.67994539
H 2.52010204 -1.43997902 -0.47737890
H -0.19617375 2.87046397 -0.38134797
H -0.63362077 -0.29505069 1.65051689
