11

O -2.2970119 -0.62323457 -0.42328593
C -1.1538789 -0.37469962 -0.1612889
C 0.1148024 -1.2137218 0.041736938
N 0.75783646 -0.05022349 0.7293256
C 0.8560347 0.9826389 -0.28529608
C -0.44212466 0.8135365 0.4133063
H -0.061993316 -2.0398545 0.73500603
H 0.65865415 -1.5780103 -0.8359211
H 0.9592615 0.6955189 -1.3297178
H 1.4544426 1.8379357 0.018233357
H -0.84602314 1.5501142 1.0979016
