11

N -1.1119546 -0.6129632 0.9980196
C -0.30235395 0.41040066 0.7361265
C 1.1136727 0.2576988 0.47249007
C 1.0405637 0.07942604 -0.87729204
N -0.25248957 0.24586225 -1.3789854
N -0.83190966 1.0816575 -0.3626767
H 1.9141234 0.014839449 1.1550269
H -0.86778486 -0.8575215 -0.41366905
H 1.814594 -0.28057012 -1.5439737
H -1.8384492 0.95750225 -0.40268096
H -0.6780121 -1.296332 1.6176149
