11

N -0.81704384 -1.3808653 1.0366968
C -0.288458 -0.3926258 0.2936026
C -0.91677666 0.7329306 -0.27349
C 0.0024302525 1.4941775 -0.9963076
C 1.2550582 0.72638756 -0.81476843
O 0.989795 -0.47361052 0.02569628
H -0.20294347 -2.0329578 1.5022254
H -1.7417667 -1.2578762 1.4136279
H -1.9742433 0.94033206 -0.14096762
H 2.027722 1.2969571 -0.29075623
H 1.6662267 0.34715047 -1.7555591
