11

N -0.97110241 -1.32028284 -0.98127629
C -0.32682048 -0.35886447 -0.29659769
C -0.82331965 0.85006564 0.22802801
C 0.19836053 1.57111131 0.84703223
C 1.36818171 0.68504112 0.65226911
O 0.95318069 -0.53650826 -0.09092141
H 2.15988478 1.14496596 0.05256686
H -0.50915345 -2.20176290 -1.15055960
H -1.97704728 -1.30829633 -0.99699168
H -1.86556536 1.14104617 0.13932926
H 1.79340074 0.33348490 1.59712080
