11

N 1.6856803 -0.17152642 0.9714206
C -1.6180776 -0.32826617 -0.56997323
C -0.5735027 -0.9557331 0.22242388
C 0.47181383 -0.08724033 0.34531504
C -0.9805282 0.8703889 -0.94753563
O 0.2740082 1.0462923 -0.36857554
H 2.1153753 0.71382606 1.1948146
H 1.7411255 -0.85198087 1.7124757
H -1.1117766 -0.052096695 -1.798662
H -0.6282947 -1.941217 0.6673898
H -1.3758234 1.757553 -1.4290932
