11

N 0.5642291 -1.4114408 -1.3642794
C 0.17618607 -0.43892214 -0.4522836
C -1.0228224 0.10349365 -0.10589151
C -0.7132427 1.1296484 0.8566181
C 0.6282839 1.1187958 1.01255
O 1.1891044 0.15691388 0.21155232
H 1.4316841 -1.8616074 -1.1060504
H -0.16178164 -2.09295 -1.5391064
H -1.9963932 -0.17240998 -0.4816873
H -1.4158108 1.7799721 1.3571094
H 1.320563 1.6885068 1.6114684
