11

N 0.99053824 -0.84684354 -1.5275513
C 0.2496878 -0.22141477 -0.5556831
C 0.58804077 -0.27662447 0.8144677
N -0.11937686 0.38026983 1.7038558
C -1.1518977 1.0869583 1.2088243
N -1.5083804 1.1604398 -0.062354576
N -0.7991209 0.48586518 -0.96135646
H 1.5287577 -1.6576993 -1.2691653
H 0.5421419 -0.9027686 -2.4297032
H 1.4356185 -0.8604269 1.166586
H -1.7560093 1.6522444 1.9120799
