11

N 0.3990677 1.6315575 1.2168795
C 0.060205996 0.6697476 0.25545326
C -0.42629492 -2.086758 -1.1683505
N 0.50636786 -1.3502355 -0.8212806
C 0.9724089 -0.19991913 -0.44540435
N -2.047342 -0.12448354 -0.6477337
N -1.1861566 0.4328883 -0.14034194
H -0.48776826 -3.0578706 -0.6602917
H 0.1287853 2.5755224 0.97155666
H 1.9768188 0.09660224 -0.72093236
H 0.10390738 1.4129486 2.1604457
