11

N -0.56968671 -0.08313981 -1.34332512
C 0.34824987 -0.37403516 -0.46660399
C 0.18480974 0.03032111 0.92146277
N 1.49743527 -1.09027267 -0.84704509
C -1.83581283 1.23081659 1.75913119
N -0.79987025 0.71965330 1.34362828
N -1.36591212 0.15077146 -2.12348784
H 1.31490496 -2.03499669 -1.15828181
H 2.09172877 -0.60198000 -1.50492562
H 0.95832069 -0.27462969 1.61448338
H -1.82416766 2.32749150 1.80496361
