11

O 1.3568422 -1.4220607 -0.1067783
C 0.445967 0.830333 0.6688777
C 0.5030167 -0.34544244 -0.3455319
N -1.0328935 0.5853556 0.77973515
C -0.9084454 -0.3971207 -0.14202164
O -1.6671582 -0.87253124 -1.0626957
H 1.9445266 -1.4956253 -0.8633581
H -1.757043 1.2933896 0.7159998
H -0.5109375 -0.6500607 -1.538845
H 0.6616118 1.8296357 0.28132853
H 0.9645138 0.64412695 1.6132892
