10

C 0.38440436 2.0542374 1.4999826
C 0.17795676 1.0939273 0.80561644
C -0.060131975 -0.04319311 -0.01998749
C -1.2063262 -0.7237462 -0.37297645
N -0.86659604 -1.7436333 -1.1981856
N 0.41821256 -1.7404134 -1.380571
N 0.91482246 -0.7230098 -0.6786451
H 0.55911285 2.9089024 2.1190488
H -2.2290237 -0.53636074 -0.08485668
H 1.9075689 -0.5467103 -0.6894259
