10

C -0.8563667 1.2815565 0.2722667
C -1.5238434 2.2726803 0.3654715
C 0.31639665 -0.5390337 -1.0862452
C -0.065632574 0.10373961 0.10886997
N 1.0493333 -1.5979658 -0.77333665
N 1.0831094 -1.5585711 0.5483455
N 0.4415638 -0.5753706 1.1384273
H 0.09494775 -0.2817121 -2.110084
H 1.5783831 -2.2595205 1.0772434
H -2.1178913 3.1541977 0.4590416
