9

O 0.75475866 0.24865653 -2.0787177
C 0.2651611 0.10945356 -0.8381179
N 0.9908204 -0.31400555 0.1742417
N 0.07767985 -0.28215924 1.1821924
C -1.1059788 0.14687489 0.7216968
N -1.0285144 0.40773675 -0.56643444
H 1.6860715 -0.008871095 -2.0528903
H 0.34311357 -0.5622247 2.1129143
H -1.9831119 0.25453877 1.3451152
