11

N -0.25705612 0.54816334 -0.58816161
C 0.26965393 -1.68785606 0.23818676
O 0.88739551 -1.92261300 -0.76858323
C 0.33169022 1.75237608 -0.33725308
C -0.49240390 -0.40298190 0.46311860
O 0.61213561 2.15808214 0.76755259
H -0.33066964 0.23529885 -1.54561657
H 0.20028975 -2.42076589 1.06760827
H 0.51610890 2.32673463 -1.26248719
H -0.17762084 0.06128033 1.40391376
H -1.55952308 -0.64771833 0.56172162
