11

N -0.60589767 -0.31431976 -0.8900701
C -0.26004624 -1.5359725 -0.620272
O -0.740921 1.8399575 1.6003419
C -0.13461065 1.507164 0.609257
C 0.7433023 0.29541972 0.58078855
O 0.5915488 -1.7083291 0.28485325
H -0.6788027 -2.3909485 -1.1621708
H -1.3079963 -0.0934157 -1.5888803
H -0.16390768 2.0838277 -0.336693
H 0.94436824 -0.059397414 1.587608
H 1.6129628 0.37601388 -0.064762846
