10

O -0.93951805 2.57242427 -0.43505155
C -0.23176617 1.75112381 0.39060621
C -0.33431964 0.44768361 0.48181966
N -0.52520830 -0.76448812 0.64392998
C 0.24380157 -1.71280682 -0.07168505
N 1.50419065 -1.68222414 -0.08827190
H 0.49370272 2.28499554 0.99414825
H -1.68249561 2.08810318 -0.81490685
H -0.38945784 -2.48690166 -0.51872655
H 1.86107064 -2.49790936 -0.58186206
