10

N -1.31020753 -1.11273768 -0.97418271
C -0.10512852 -0.82925534 -0.41565198
O 0.85177803 -1.57576223 -0.42897495
C 0.97018222 0.82921543 0.69245188
O 1.10669225 2.00834411 1.28962768
N -0.13205691 0.46501404 0.17811964
H 1.88583767 0.24005131 0.69993847
H -1.44411921 -2.02001854 -1.38328525
H 0.24775725 2.45632154 1.23216609
H -2.07073526 -0.46117222 -0.89020894
