10

N 1.7192276 0.68874353 -0.22401202
C -1.557528 -0.57496136 0.19752173
O -2.3402517 -0.14466718 1.1029719
C 0.68678623 -0.13559061 -0.5369049
O 0.6977551 -0.9508205 -1.4386351
N -0.4220466 0.07311813 0.30253255
H 1.6899922 1.284354 0.5845235
H 2.5829453 0.5638332 -0.7249496
H -1.81321 -1.3487288 -0.5235836
H -1.2436695 0.5447198 1.2605355
