9

O -0.2728934 -1.743531 -0.7568023
C 0.80564916 -0.54535824 -1.210265
C -0.023479253 -0.3805789 -0.15551789
O 0.69784176 1.9571139 0.802337
C -0.29898986 1.3880795 1.1835524
N -0.7403632 0.12948371 0.74935406
H -0.99961823 -1.6899576 -1.3953972
H 1.8128799 -0.94070554 -1.1492816
H -0.98102695 1.8254541 1.9320203
