9

O 1.4012709 -2.0733416 1.2557671
C 0.73244214 -1.9170002 0.27444544
C 0.2486745 0.31904233 -0.18155652
O -1.4779531 1.9764737 -0.32154673
C -0.2530413 1.5109602 0.058866505
N 0.75372314 -0.7540036 -0.5296781
H 0.32044336 2.2167945 0.6472161
H 0.0952064 -2.7065983 -0.16462572
H -1.820766 1.4276727 -1.0388881
