11

C -0.46381325 -0.2607426 -0.8143708
N 0.31568295 -1.0682217 0.10046424
C -0.050636925 1.1329142 -0.3230908
O 0.28556755 0.9404158 1.0517453
C 0.5480127 -0.37723365 1.2737412
O 0.9245449 -0.81463426 2.3252132
H -0.18289424 -0.4295448 -1.8567159
H -1.5420482 -0.42831406 -0.70198935
H 0.1799555 -2.063108 0.18621653
H -0.8494461 1.8721262 -0.38865727
H 0.83507526 1.4963433 -0.8525566
