10

O -2.2251296 -0.1100878 0.19820353
C 0.37316987 -0.811723 0.43644765
C 0.93878835 0.4401357 -0.30173656
C -0.9517487 -0.13583693 0.13149405
N -0.4678705 0.8958309 -0.4920748
H 0.52694786 -1.7683556 -0.06759382
H 0.6188068 -0.893092 1.4974467
H 1.5327361 1.1166297 0.31914783
H -1.8007778 1.0323479 -0.47802132
H 1.4550776 0.23415123 -1.2433132
