11

O 1.6842656 0.6638674 -0.5165153
C 0.76168376 -0.047066826 0.25073162
C -0.3392759 0.6909578 1.0426675
O -1.3531047 -0.14736256 0.4152238
C -0.422336 -0.6851173 -0.4399271
N -0.5572185 -1.3782222 -1.4776552
H 1.2584168 0.9046524 -1.3487443
H 1.3186914 -0.7540589 0.8713406
H -0.3491174 0.57457024 2.127951
H -0.46241218 1.7382685 0.75231457
H -1.5395929 -1.5604885 -1.6773874
