11

O 1.09092685 0.47565014 0.60537621
C 1.09520111 -0.28221256 -0.58822661
C -0.24547042 0.78811559 0.94929994
O -2.31172599 -0.32294224 0.21589769
C -1.11244853 -0.17713969 0.15244364
N -0.23696294 -0.83479074 -0.66079328
H 1.31384260 0.35589994 -1.46025610
H 1.86394606 -1.05597973 -0.50602642
H -0.39220101 0.66190452 2.02560640
H -0.50735109 1.82084758 0.67593821
H -0.55775666 -1.42935276 -1.40925989
