9

O -0.23590913 -1.19627796 1.75246963
C 0.77684038 0.43130290 -3.75536481
C 0.33815543 0.32681190 -1.29216042
C 0.12460100 0.27677802 -0.11368158
C -0.17715896 0.14280820 1.31982162
N 0.57338861 0.38418361 -2.59579267
H -1.11009311 0.68405510 1.53895275
H 0.61745749 0.61097462 1.90805457
H -0.90728162 -1.66063633 1.23770088
