11

O 0.9285737 -1.9314344 1.6992549
C -0.77025163 0.30703112 -1.0049329
N -0.44518694 -1.6486369 0.13114904
C 0.21497937 1.023622 -0.14684509
C 0.4720108 -1.086696 0.921312
C 0.8467947 0.33732393 0.8050941
H 0.39208642 2.0835226 -0.321041
H 1.592587 0.7373076 1.4832296
H -0.34144124 -0.09311657 -1.9299678
H -1.6732792 0.8840206 -1.2249066
H -1.216873 -0.61294407 -0.4123464
