11

N 1.18680504 -1.33693301 0.16692470
C 0.17763673 -0.77630442 0.87093662
O 0.07212847 1.16054743 -1.17440857
C -1.08434762 0.89444829 -0.34323127
C -0.12352358 0.64567211 0.76716796
O -0.54144631 -1.35538656 1.67900652
H 0.42623182 2.02519471 -0.91209477
H 1.79345832 -0.77322854 -0.40259836
H -1.60774916 0.04252873 -0.78624375
H -1.74168175 1.76317181 -0.25302713
H 1.44248822 -2.28971073 0.38756744
