11

O -0.20439251 -1.2814686 -0.7481474
C 0.45329246 -0.8089236 1.3740274
C -0.34598395 0.046457235 -1.0912135
C 0.34745756 0.61863077 1.1507696
N 0.19943674 -1.7150668 0.5025737
C -0.043439038 1.0291789 -0.057180468
N -0.7193819 0.3773755 -2.2525907
H 0.7652567 -1.2011577 2.3367553
H -0.15429628 2.0709436 -0.33514544
H 0.5840792 1.3060657 1.9565792
H -0.882029 -0.44203484 -2.8364277
