11

O -0.07068441 0.53388417 1.7952398
C 1.3185053 -0.13450994 -0.47008225
C 0.33288205 -1.1890404 -0.63614225
C -0.8109279 -0.8513122 -0.03282585
N 0.9443222 0.90838903 0.17995441
C -0.66379595 0.47669265 0.65503776
N -1.1603918 1.5336226 -0.023270374
H -1.024 2.3424234 0.5995445
H -1.7490011 -1.3907917 -0.028248625
H 2.3359132 -0.1278141 -0.8602914
H 0.5471789 -2.1015434 -1.1789159
