11

N -0.005691515 -1.1024088 -0.18720798
C -0.370396 -0.72603476 -1.5190703
C 0.06204515 0.003749152 0.56796086
O -0.97136146 -1.3173031 -2.3889554
C -0.25365722 1.11519 -0.20771249
O -0.4845652 0.7737959 -1.4464103
N 0.59500366 -0.023781696 1.8496462
H 0.8700199 -0.80059147 -1.44038
H 0.38126922 -0.8836289 2.3357072
H -0.191907 2.1723795 0.029646304
H 0.36924034 0.78863424 2.4067764
