11

N -0.73102164 -0.7577853 1.5600911
C -0.1950785 -0.12962118 0.42138118
C -0.13067007 -0.6112504 -0.869052
N 0.403 0.39357495 -1.6170546
N 0.69220996 1.4807894 -0.9076274
C 0.33166772 1.1783279 0.33185935
H -0.21759655 -0.5317864 2.4018462
H -0.7744794 -1.7620769 1.4610257
H -0.4172633 -1.5590756 -1.3005837
H 0.5841425 0.39322314 -2.6061883
H 0.4550893 1.9056798 1.1243018
