10

N 0.60626775 -0.17340164 3.3027623
C 0.35267213 -0.028412286 2.1842687
C 0.042572264 0.1347391 0.79841477
N -0.65452886 1.1220316 0.2855092
C -0.7012832 0.863374 -1.0519881
C -0.024742186 -0.29150102 -1.3494939
N 0.45051104 -0.75306976 -0.15474541
H -1.2211304 1.5244832 -1.7327768
H 0.15451515 -0.80963176 -2.2784817
H 0.9951462 -1.5886114 -0.0034692127
