10

N -0.13501047 -0.76509386 0.46428463
C -0.26343778 0.028951107 -0.7001604
C 0.5627254 -0.45103994 -1.8032897
N -1.0874885 0.98539144 -0.77790236
C -0.4563947 -0.033830874 1.7190858
C 0.7807366 -0.27648175 1.520537
N 1.2218127 -0.7775823 -2.6908598
H -1.3404728 0.28027564 2.2440858
H -1.1136404 1.3737714 -1.7209284
H 1.83117 -0.36436072 1.7451473
