10

N -0.19981092 -0.26292462 0.84267604
C 1.23948569 -0.49406696 1.10344805
C 0.80299214 0.65529236 1.44585345
N -0.56143452 1.29277487 -0.87879692
C -0.57033008 0.09386405 -0.47578920
C -1.05925713 -1.04216638 -1.25052558
N -1.42343761 -1.91635500 -1.90777249
H -0.95608075 1.36947344 -1.81644969
H 0.80737460 1.63113025 1.89707754
H 1.92049847 -1.32702198 1.04027865
