10

N 2.8750453 0.6438287 -1.3693106
C 0.5603912 0.37898937 -0.17179747
C -1.6809685 -0.4362928 0.63068444
N 0.30561376 1.0218254 0.9082396
C 1.841999 0.5164513 -0.87165135
C -1.2296762 -1.2697595 -0.21702205
N -0.27728432 -0.43958837 -0.8293623
H -2.0675888 0.33442706 1.2590904
H -1.4632106 -2.2630792 -0.58095443
H 1.1356789 1.5131983 1.2420835
