10

C -0.9328949 0.3775208 2.3649728
C -0.4739388 0.20866472 1.2657292
C 0.0661336 0.006669677 -0.033266075
C 1.3414265 0.119627975 -0.54939336
N 1.3053665 -0.19570972 -1.8667303
N 0.086751 -0.49743608 -2.2023597
N -0.6649663 -0.3793005 -1.1106158
H -1.330822 0.5307135 3.3449397
H 2.2561567 0.40196204 -0.05290011
H -1.6532124 -0.5727124 -1.1603764
