10

C -0.6106132 0.35738823 2.4370627
C 0.977475 0.25395563 -0.70342255
C -0.29426163 -0.16935657 -0.14073738
C -0.4496423 0.12674083 1.2682464
N 1.3688103 -0.17354612 -3.067518
N 1.1899914 0.025900638 -1.9690156
N -1.1822838 -0.75020534 -0.85702485
H -2.0031166 -0.97138274 -0.2933215
H 1.7651205 0.74316543 -0.15119834
H -0.76147974 0.55733997 3.4769292
