10

C 0.1429254 1.321571 -0.3719891
C 0.75676244 -1.0671464 -0.18184908
C -0.1741457 -0.0015149663 0.09664454
C 1.5211983 -1.9644066 -0.4050531
N -1.2814193 -0.14386137 0.7406279
N -0.8492996 2.113658 0.0049142446
N -1.8331965 1.9305866 0.59490174
H -1.4854834 -1.0894295 1.0530499
H 0.999696 1.6629332 -0.92649186
H 2.2029622 -2.7623901 -0.6047553
