11

O 1.2537712 -0.6569213 -2.1056545
C 0.6226788 -0.34791738 -1.1171288
N 1.1411371 0.033358753 0.09934986
C 0.12859975 0.33839437 1.0823601
C -1.1387125 0.09159137 0.30664626
C -0.85939986 -0.29446745 -0.9362766
H 2.1324496 0.08853253 0.25933716
H 0.18958768 1.3773293 1.4319896
H 0.19637296 -0.31269822 1.9629154
H -2.1196954 0.2272592 0.7505566
H -1.5467893 -0.54446113 -1.7340953
