11

O 1.2068754 -1.586538 -1.5704979
C -1.0679923 0.53164834 0.25367528
N 1.5167273 -0.07930495 -0.54122365
C -0.87543243 -0.6557966 -0.5449226
C -0.12649205 1.0007461 1.1039664
C 0.4245762 -0.86060184 -0.86716634
H 2.1118734 -0.63800895 0.0829113
H 0.65547246 0.36962575 1.5135562
H -1.9679772 1.1189766 0.0696588
H -1.681648 -1.20703 -1.0101373
H -0.19598317 2.0062835 1.5101798
