11

N 1.3674545 -1.1196266 -0.7397901
C -1.1549714 -0.517002 -0.29987004
C 0.5896816 1.1495664 0.017534297
O -0.75470674 0.8554256 -0.3804445
C -0.008556947 -1.1185001 0.50565076
C 1.2006822 -0.24243209 0.10448522
N 0.43456322 -0.894323 1.6347886
H 0.5957735 1.680905 0.97253555
H 1.0719824 1.7324648 -0.76753205
H -2.0904024 -0.5883174 0.25525242
H -1.2515002 -0.93816054 -1.3026102
