11

N -1.13907906 -0.61079260 -1.17671024
C -0.19206957 0.39000197 -1.18552294
C -1.22079821 0.28408925 -0.12632861
O 0.79891991 -0.38117046 0.74536051
C -0.56992140 -0.22971799 1.15991176
C 1.16210570 -0.05654774 -0.60873066
N -0.70455747 1.49928095 -0.54551987
H -0.62767862 0.49856573 1.97147292
H 1.89223089 0.75419628 -0.60273674
H -0.95754544 -1.20205745 1.47129071
H 1.55839338 -0.94584812 -1.10248660
