10

O -0.02452354 -2.1647894 1.2439806
C 0.18170735 0.88818103 -0.6295491
C 0.22247554 -1.4216057 0.30704588
O -0.5134817 0.41243407 1.6158102
C 0.0011270357 0.025136704 0.4603891
C 0.5743139 1.9361573 -1.2528179
H -0.59660006 0.096649855 -1.0544813
H 0.6418288 -1.7580383 -0.6554105
H -0.68417215 -0.41198313 2.1219351
H 0.19732483 2.3978572 -2.1569026
