9

O -1.0476764 1.1733348 -0.10271394
C 0.5981197 -0.40307832 -0.8726495
C 0.099164814 -0.18703623 1.487027
O 0.9339061 0.41866148 -1.6847837
C -0.50676984 -0.07949801 0.13589218
N 0.603934 -0.27813575 2.5200212
H -0.45265192 1.613261 -0.73439
H 1.0566298 -1.4044033 -0.8057099
H -1.2846564 -0.8531056 0.05730663
