10

O -1.1173978 1.2653487 -0.883754
C -0.81810135 0.39281127 0.124658905
C 0.5378302 -1.110607 0.08780921
O -0.8056754 -1.0104333 -0.29763806
C 0.64922935 0.25015435 0.55438465
O 1.3161848 -0.18832795 -0.6466853
H 0.9594022 -2.0711274 0.3602217
H -0.4124945 1.1770015 -1.5423412
H 1.2303658 0.7623757 1.3117716
H -1.539343 0.5328045 0.9315724
