10

O -0.67002431 -1.13667654 -0.13308160
C 0.59078909 -0.98507975 0.45935374
C -0.85271074 0.31712185 -0.10699774
O -1.03411719 0.86835855 -1.34434422
C 0.52511804 0.45293226 0.55724467
O 1.41770261 -0.19606881 -0.37106332
H -0.22199151 0.69676697 -1.84378311
H 1.02511581 -1.79246403 1.03729999
H -1.71001206 0.57386792 0.51751240
H 0.93013021 1.20124158 1.22785901
