10

O -0.12407341 -1.182441 -1.082184
C -0.06497909 -0.48116428 0.11632615
C -1.3101249 0.37608045 0.332221
O -1.4840621 1.0079905 1.3427856
C 1.1415066 0.4405828 0.14629896
O 1.924216 0.44769144 -0.77222204
H 0.6709734 -0.9287833 -1.5807189
H 0.022006558 -1.1523468 0.9859634
H -2.019043 0.3793456 -0.51906025
H 1.2435799 1.0930446 1.0305899
