11

C -0.07227303 1.78655501 0.32412851
C 0.24770827 -0.55560467 0.70865396
C 0.00989715 0.60534879 -0.23909210
C 0.02167142 0.28394328 -1.71170626
O 0.83247924 -1.54919422 0.33268200
N -0.23362013 -0.39098490 1.96546863
H -0.08155748 -1.13485921 2.63041878
H -0.80876680 0.39576225 2.21123955
H 0.91118969 -0.31569456 -1.92675220
H -0.85833894 -0.31347245 -1.97375267
H 0.03161060 1.18820104 -2.32128768
