10

O 1.0401243 -0.7184817 -0.5629849
C 0.04303377 -0.19864047 -1.3048891
O -1.0749398 0.9055792 1.7520412
C -0.90267485 0.47602504 -0.6332638
C 0.776033 -0.37710115 0.8004459
C -0.5251464 0.4320076 0.78587615
H -1.7777085 0.96488494 -1.0377287
H 0.1311911 -0.39374453 -2.3689957
H 1.6143212 0.2074368 1.1875209
H 0.67576635 -1.2979658 1.3819778
