9

N -0.26277953 1.2190189 1.5174544
C -0.36975238 1.1589895 0.16769303
O -0.7430536 2.0653098 -0.5429946
C 0.014457593 -0.13736844 -0.41023552
C 0.30267125 -1.1610951 -0.9745476
C 0.6348001 -2.339624 -1.6289549
N 0.91212547 -3.3241715 -2.172336
H 0.038378928 0.43761533 2.074906
H -0.5268479 2.081325 1.9690151
