9

N -0.8266627 1.7550611 -0.29285192
C -1.1848333 1.4098303 1.0001295
O -1.673837 1.8237398 2.00015
C 0.829936 -1.6887457 -0.34238556
C -0.4789502 0.46553805 0.16926391
C 0.1938999 -0.60576206 -0.1472346
N 1.4043368 -2.7765114 -0.4524585
H -0.2667231 2.5117607 -0.6648485
H 2.0028336 -2.894911 -1.2697643
