9

N -0.14841515 1.69790254 0.97183986
C -0.62017709 1.97916245 -0.30001114
O -1.18121860 2.79730590 -0.95297393
C -0.04761693 0.68730068 -0.01093596
C 0.26774591 -0.56607710 -0.18463954
C 0.53094524 -1.77716544 -0.46654468
N 0.77712279 -2.93013681 -0.83443078
H 1.01443098 -3.60060900 -0.10343315
H -0.59281723 1.71231628 1.88112922
