11

N 1.0347148 -0.017673735 -1.5507134
C 0.27794802 -0.02573306 -0.37424588
C -0.3757313 0.96922356 0.3198019
C -0.8723455 0.31465286 1.4704647
N -0.5710351 -0.9676611 1.4933119
N 0.13382542 -1.1562492 0.3587031
H 1.0248525 0.8970084 -1.9823936
H 0.7313758 -0.70788276 -2.2283034
H -0.4855637 2.0061822 0.035612825
H -1.450358 0.7430158 2.278303
H 0.552317 -2.054883 0.17945962
