11

N -0.29214665 -1.0000548 -1.5517198
C -0.3349754 -0.7525535 0.70588976
C -0.5631179 -1.5937824 -0.40750942
C 0.09208016 0.43340412 0.14858943
N 0.10501059 0.23900342 -1.19133
N 0.41093087 1.6766273 0.69739354
H 0.2908644 0.926557 -1.9029651
H 1.3368943 2.002376 0.44657677
H -0.4569266 -0.9766238 1.7559712
H -0.9105547 -2.619001 -0.40540624
H 0.32194102 1.6640475 1.7045097
