11

C -0.286383 -0.12335586 0.9111562
C 1.3986063 0.3321465 -0.9716839
O 0.42576635 -1.5733339 0.09068688
C -1.3195521 0.51301014 0.043206852
C 1.0635589 -0.30386412 0.30128366
N 1.6637802 0.8795689 -1.9540427
H 1.9335818 -0.3489857 0.96039623
H -2.3039222 0.07389996 0.212502
H -1.0885079 0.5347345 -1.0288041
H -0.12622978 -1.5367057 1.0383433
H -1.3606985 1.5528852 0.3969554
