10

N -1.89213740 -1.08992205 -0.10808213
C -0.80404388 -0.78554859 0.42753190
C 0.15095337 0.20025568 0.85307388
C 0.99980140 0.94928387 -0.09333022
C 0.74159687 0.97817956 -1.38836481
O 0.55200857 1.03254225 -2.53294319
O 0.32885214 -1.30694660 0.91861791
H -2.00529724 -2.10058188 -0.17966256
H 0.06235666 0.61873314 1.85227134
H 1.86590960 1.50400463 0.25088795
