11

N -1.60329311 -0.37447122 -1.82320570
C -0.10437847 -0.19358430 0.21351039
C 1.13951236 0.59555105 0.20719521
N 1.53398954 1.24911494 -0.80892055
N -0.43282775 -0.86753927 1.42759614
C -0.88638841 -0.21765378 -0.84703058
H -2.32733207 0.32801964 -1.95537726
H 1.66502904 0.54883683 1.17099882
H 2.42066953 1.70448288 -0.60581920
H 0.02352575 -1.77396842 1.48161506
H -1.42850655 -0.99878841 1.53943786
