11

N -0.87461585 0.9930501 -1.3404652
C -0.28230774 0.24176365 -0.3096324
C 1.0144298 0.30303198 0.15567544
N 1.0778472 -0.55955905 1.2068433
N -0.07605235 -1.1785754 1.4507097
C -0.91101843 -0.6988734 0.5393015
H -1.5596547 0.4583466 -1.8575581
H -0.19088686 1.3606789 -1.9870049
H 1.8701104 0.87759167 -0.16676441
H 1.8713822 -0.7608557 1.7901015
H -1.9392338 -1.0365994 0.51879376
