11

N -1.1529584 -1.506282 -1.5609798
C -0.67887974 -0.7328246 -0.7433766
C -0.19220223 -0.0011215198 0.23877493
N -0.94291264 0.3105049 1.4115585
N 1.9156797 0.39194503 -0.8627369
C 1.155081 0.58579975 0.13684261
H 2.8025541 0.8698533 -0.72177947
H -0.7186159 -0.32429418 2.172815
H 1.4075165 1.1990519 1.0128937
H -1.6551422 -1.0763847 -2.3344104
H -1.9401202 0.28375217 1.2503985
