10

O -1.6246036 0.9152082 0.17845948
C 1.0605756 -0.71854997 -0.6099024
N 0.5893898 0.7913489 1.0807506
C -0.09481404 -1.1782931 -0.12968273
C -0.43631908 0.25780565 0.22890364
N 0.7728944 0.7178212 -0.43070808
H 0.3348988 1.7707815 1.2381806
H -0.5430944 -2.1409285 0.063966475
H -2.0611055 0.70089966 -0.6545249
H 2.0021782 -1.1160935 -0.9654427
