12

O -0.10119306 0.56429257 -1.28839620
C -1.04606897 1.30859205 -0.73431421
C 0.87430976 -0.08017400 -0.43137611
O -1.26910676 1.45474724 0.44241111
C 0.30566604 -1.13925141 0.50428780
O -0.05371937 -0.65717876 1.76748120
H 1.40428175 0.68173651 0.14759135
H 1.55269474 -0.53246628 -1.15787262
H -1.61920965 1.80853502 -1.52540746
H 1.09597461 -1.88128428 0.66641650
H -0.61743282 0.12097570 1.61910083
H -0.52619625 -1.64852420 -0.00992248
