12

O -0.928721 0.024245376 -1.7147977
C 0.1283206 -0.30519015 -1.072009
C 0.74905705 0.6897943 -0.10695078
O 0.5727585 -1.5031307 -1.0966123
C -0.14346457 0.29054353 1.1061287
O -1.003267 -0.732159 0.5651
H 0.5840782 1.710804 -0.45490867
H -1.4279717 -0.11118491 -0.60906744
H -0.037115026 -1.5606318 -0.07259105
H 0.43990377 -0.118652545 1.9347705
H -0.74355304 1.1275167 1.474137
H 1.8099744 0.48804504 0.046800908
