10

N 0.90669435 -0.7934008 -0.33398405
C -0.8811872 -0.11427712 0.94649273
C 0.16431215 -1.1456915 0.6485693
N 1.4764572 1.7452729 -2.6779401
C 0.3701468 0.4720944 -0.70054036
C 0.9760013 1.1909376 -1.8012867
N -0.62467116 0.920759 -0.04256027
H -0.7927021 0.30351216 1.9550117
H -1.9016159 -0.49469665 0.8322215
H 0.30656463 -2.08451 1.174016
