11

N 0.19556965 -1.7724137 -0.4972819
C 0.1605476 -0.42215562 -0.10884307
C -0.73587584 1.5671716 0.22862172
N -1.0216798 0.28307196 -0.13879067
C 1.1064743 0.4890598 0.2835494
N 0.53457755 1.7260324 0.48061123
H -0.15199034 -2.3935413 0.22433284
H 2.1647768 0.32446033 0.4357283
H 1.1412982 -2.0516267 -0.72996145
H -1.4950402 2.33359 0.29333118
H -1.898658 -0.083648644 -0.47129744
