9

N -0.2583748 1.2223158 1.5186583
C -0.36956525 1.1604952 0.166254
O -0.7441304 2.066238 -0.5457657
C 0.014086976 -0.14142302 -0.40901017
C 0.30362022 -1.1634908 -0.9744118
C 0.634991 -2.3393946 -1.6287601
N 0.91083854 -3.3228133 -2.170961
H 0.033513717 0.43364668 2.0733435
H -0.52498007 2.0844262 1.9706528
