9

N 0.5908979 -1.6477208 0.3196421
C 0.8393202 -0.012054424 0.23694742
O 0.22106664 2.18016 -0.14910315
C 1.5868297 -2.3100376 0.56384254
C -0.13417949 1.0203123 -0.119310156
C 1.951256 -0.5602098 0.53174484
N -1.3755794 0.54739136 -0.38181084
H -1.6094407 -0.42688224 -0.31033313
H -2.0701706 1.2090412 -0.6916196
