10

O -0.015147195 -1.3763242 -0.95823354
C -0.4045096 -0.38670897 -0.051412746
C 0.68416166 0.00897091 0.94516003
O 0.63135886 1.3874562 0.4751415
C -0.25949022 1.0722393 -0.5044588
O -0.6944334 1.7698325 -1.3660444
H -0.65086883 -1.3919526 -1.6832838
H -1.3825712 -0.58522093 0.40951657
H 1.6529874 -0.44233546 0.7268889
H 0.43851265 -0.055956747 2.0067263
