11

N 1.6156524 -0.06639211 -0.29408735
C 0.47638282 0.18137944 -0.9907572
O 0.36977866 0.1441881 -2.198762
C -0.7173521 0.46807882 -0.11390107
C -1.1577672 -0.51993495 0.8748988
O -0.4657919 0.65586305 1.2721921
H 1.657241 0.18295655 0.6813593
H 2.4717867 -0.1798828 -0.8165066
H -1.448023 1.1385434 -0.5614151
H -2.2086072 -0.5606066 1.1588395
H -0.59330016 -1.4441929 0.98813945
