11

C -1.3045989 -0.7882139 0.6805359
N -0.12603459 -0.05337527 0.2663868
C 0.3949594 0.09988753 -0.9702734
C 1.4875771 0.9051928 -0.7688566
N 1.5710719 1.193104 0.55333537
N 0.59471726 0.61458784 1.1749529
H -1.3643521 -0.70819145 1.7666678
H -2.2009742 -0.35504183 0.23207718
H -1.2197298 -1.8382406 0.3946851
H -0.03529207 -0.35756952 -1.8486443
H 2.202656 1.2878604 -1.480867
