11

C 1.3615335 0.62015814 0.6276439
N 0.24911813 -0.18644708 -1.3162968
C -0.9890084 -0.30703506 0.5315604
C -1.7260522 -0.96888286 -0.45399988
N -0.86301106 -0.8678718 -1.572119
N 0.18332182 0.069538824 -0.026301648
H 1.8769975 1.2587596 -0.08970721
H 2.0169744 -0.19370884 0.94152707
H -1.1869487 -0.11727648 1.578274
H -1.9659775 -0.5070872 -1.7160939
H 1.0430521 1.1998527 1.4955132
