11

C -0.88010883 -0.79869086 -1.1904538
C -0.12609388 -0.062893845 -0.14152253
C -0.26201457 1.133763 0.47151154
N 0.759675 1.3017111 1.3980377
C 1.446097 0.21938689 1.2986344
O 0.9833133 -0.66386044 0.39059097
H -1.2580959 -1.7537091 -0.8140035
H -1.7308748 -0.19685403 -1.5179883
H -0.24938974 -1.0053622 -2.061551
H -1.0166317 1.8914096 0.32104528
H 2.3341243 -0.064900175 1.8456994
