11

C -1.22913741 -0.48094202 -0.25763263
C 0.11554714 -0.41146419 -0.03970002
C -0.51314120 1.65083541 0.16819842
N -1.55544181 0.89443397 -0.10724417
C 1.19754436 -1.42694605 -0.02926611
O 0.55403385 0.91886022 0.22776132
H 0.73458738 -2.39634706 -0.22638768
H -2.49336747 1.25451503 -0.20079105
H 1.95181784 -1.24201824 -0.80409976
H -0.47324772 2.71892389 0.33196103
H 1.71080522 -1.47985104 0.93720082
