11

C 0.9802799 0.6465384 0.39278305
N 0.16177215 0.3305184 1.2504065
C 1.937956 1.0536928 -0.4059429
C -1.2717922 -0.7883063 -0.35025313
N -1.1092628 -0.14556378 0.9400558
H -1.1709127 -0.035705477 -1.1385156
H -1.3976183 -0.72319144 1.715373
H 1.9489782 2.075391 -0.7720309
H -2.27812 -1.208601 -0.40104222
H -0.534946 -1.5853246 -0.5299823
H 2.7336657 0.38055184 -0.70085144
