9

N 1.1383688 -0.06172549 -0.45641446
C 0.19291596 -0.14906937 0.6544116
N -1.0059645 0.56359 0.7350029
C -0.078222565 -0.6352854 -0.8727448
O -1.0301677 0.22325104 -1.1384971
H -0.17658773 -1.6948186 -1.1018283
H 1.2069268 0.8893198 -0.81243443
H 0.62634367 -0.49155027 1.5928172
H -0.8736126 1.3562881 1.3996875
