9

N -0.8084758 -1.0121948 0.24517862
C -0.21735677 0.9236181 0.034596063
N 1.1231902 0.44544536 -0.1497046
C 0.021886313 -0.3002498 -0.7366729
O -0.91340894 0.20406757 1.0430623
H 0.029334173 -0.5790379 -1.7804016
H -0.25408277 -1.6676365 0.80047154
H 1.5272881 0.036677647 0.69343984
H -0.50837463 1.9493102 -0.14996938
