11

O 1.0705514 1.0581244 -0.8913539
C 0.49978027 -0.042281404 -0.5462772
C -1.471712 1.256093 0.57487965
C -0.62616694 -0.012511422 0.5125343
O -0.851486 -0.93667465 1.2479784
C 1.4308656 -1.1134194 -0.30404314
O -1.7144105 1.9043189 -0.4077838
H 2.2888367 -1.1740216 -0.96679676
H -1.8959122 1.4579093 1.5783048
H -0.10651919 -0.6254243 -1.3555743
H 1.3761725 -1.7721133 0.558132
