10

O -0.08273159 -1.56457687 1.03456631
C -0.06212346 -0.51428757 0.18709723
C 1.13038612 0.92729039 -0.31735330
N 0.03673584 0.96727753 0.59681791
N -1.22057890 1.19236364 -0.17591806
C -1.36142947 -0.06145462 -0.42009647
N 1.16502823 -0.31852522 -0.62592931
H 0.82990580 -1.80926865 1.24834302
H 1.76380565 1.74927568 -0.64018903
H -2.19899842 -0.56809403 -0.88733859
