10

O 0.98726803 -0.671024 1.4491727
C -1.107906 -0.8769814 0.19286227
C 0.27640006 -0.3130654 0.3590954
N -0.45864484 1.026987 0.16765897
N -1.6977788 0.23186475 -0.07922689
C 0.31845722 1.0394137 -1.0278898
N 1.0354435 -0.015650133 -0.8821272
H 1.8885256 -0.3273924 1.3589858
H 0.3005766 1.7717302 -1.8306948
H -1.5423416 -1.8658825 0.2921636
