10

O 1.4489512 -1.2692158 0.87089294
C 0.54686034 -0.45532972 0.32273424
C 0.88313085 0.8914008 0.08473931
N 0.0059029134 1.7130071 -0.45775867
N -1.2065783 1.2595612 -0.7819634
C -1.4659619 -0.014323105 -0.5346119
N -0.6415469 -0.9186275 0.0112064
H 1.0318943 -2.1418612 0.9559511
H 1.8578757 1.2949562 0.3342728
H -2.4605284 -0.3595677 -0.8054631
