10

O 0.77428496 -1.5172992 -0.61723876
C -0.61595654 1.0411266 -0.74052876
C 0.5156464 -0.36803523 -0.052069608
N 0.67307484 0.8110074 -0.7958788
N -1.386937 0.23502675 0.07283692
C 0.26348704 -0.29121527 1.3969209
N -0.9312686 0.16171058 1.45135
H 0.91652626 -0.47176218 2.243071
H 0.8878614 -1.373113 -1.5704551
H -1.0967185 1.7725534 -1.3880079
