12

O -1.3181179 0.032851554 -1.2393606
C 0.28195179 -0.5990241 0.48557943
C 0.12622574 1.8224667 1.1556941
C -0.23001865 -0.8114131 -0.934941
N 0.74937713 0.78430873 0.64678806
H 1.666929 0.9517294 0.24663565
H -0.8415231 1.426482 1.5382087
H 1.10415 -1.2878444 0.7116045
H -0.5903376 -1.838977 -1.0443573
H 0.60211265 -0.66922 -1.6441467
H -1.0238948 0.9448542 -1.1258136
H -0.52685434 -0.7562139 1.2041087
