12

O -0.5446079 0.6185398 -1.6986719
C 0.18790972 1.1719435 -0.6315938
C 0.36431015 0.1619196 0.48806798
C -0.7133809 -0.7881907 0.83513844
N 0.42243323 -1.2214807 0.015416493
H -0.23271632 -0.29827672 -1.7656832
H -0.3618163 2.0478702 -0.2693024
H 1.1818045 1.5134337 -0.96391135
H 1.0459487 0.45550948 1.2838027
H -1.6573299 -0.7356993 0.30210537
H -0.7752716 -1.1439084 1.8616782
H 1.0827165 -1.7816604 0.5429535
