9

O 1.0393586 -0.8274436 -1.902322
C 0.30402485 -0.0943502 -1.2726196
C 0.12687579 -0.3297006 0.15933163
O 0.8221762 -1.3650686 0.69933754
C -0.66492337 0.4665609 0.85806304
N -1.5072291 1.1521552 1.4135885
H -1.1648749 2.0162086 1.8310529
H 1.2942464 -1.7610674 -0.05308967
H -0.24965411 0.7427056 -1.7333425
