9

O -1.118494 0.3678319 -1.0530595
C 0.072120585 -0.091934994 -0.51364356
C 0.48842317 0.7411143 0.70165086
O -0.22644554 1.6260191 1.0994607
C -0.0063231764 -1.5043981 -0.062455006
N -0.053796295 -2.592428 0.31956473
H -1.4817599 0.9986622 -0.4072195
H 0.8760816 -0.028569568 -1.2606591
H 1.4501935 0.48370317 1.1763604
