9

O 0.94247925 1.3281856 0.39337876
C -1.1636931 0.26425353 0.14315118
C 0.89764494 -0.8495096 -0.5834559
O -1.678968 1.1724561 0.7785601
C 0.255796 0.31368294 -0.14697398
N 1.6092403 -1.6261797 -1.2144561
H 0.28940767 1.804771 0.94202036
H 0.58787906 -1.8151106 -0.060704384
H -1.7397863 -0.59254926 -0.25152013
