11

C 1.2975572 0.6376383 0.5744588
C 0.10157346 -0.29153076 0.41314155
C -0.74598485 0.050089013 -0.78435767
O -0.5416361 0.9466355 -1.5585763
C -1.9297702 -0.8330725 -0.97598207
N -2.844579 -1.5208263 -1.1174062
H 1.9483659 0.5984733 -0.30379233
H 1.8804736 0.34584504 1.4518387
H 0.9755903 1.6753156 0.70059055
H -0.5528962 -0.268592 1.2940941
H 0.41130564 -1.3399751 0.30599093
