11

C 0.46762663 -0.07145544 1.3656961
C 0.5421295 1.4318163 -0.6378866
C 0.22632974 0.121279135 -0.069926344
O 1.3567189 -0.5982606 0.39456642
C -0.82313854 -0.67128485 -0.8136193
N 0.7587419 2.4674091 -1.1012775
H 0.8644562 0.7448675 1.9660069
H -0.14063029 -0.8053005 1.8925451
H -1.7665397 -0.11975994 -0.8542542
H -0.49655786 -0.87413543 -1.837662
H -0.989136 -1.6251751 -0.3041885
