11

O -0.78749627 -1.1389261 1.278557
C 0.16348243 -0.22749318 0.67391217
N 0.8588937 0.4027946 -1.547533
C 0.22765328 -0.45656902 -0.8001049
C -1.1211684 0.24512933 1.2721708
O 1.3715508 -0.06662462 1.0561999
H -0.1349442 -1.3739917 -1.2620809
H 1.0995615 0.19326901 -2.506855
H 1.3485558 1.1548622 -1.0745482
H -1.0301533 0.75037074 2.2348933
H -1.9959354 0.51717883 0.675389
