9

O -2.5753605 0.67648566 0.29563767
C -1.6323674 0.097731926 0.7653049
C -0.29920632 0.04265664 0.096058495
N 0.7624473 -0.54945153 0.5443942
C 1.6614262 -0.27876028 -0.45802882
N 1.1834373 0.42463177 -1.4413763
O -0.13027619 0.64420056 -1.0785366
H -1.6601965 -0.4428296 1.7273729
H 2.6900964 -0.6146652 -0.45082653
