9

O -1.90857640 1.32104081 -1.09013642
C -0.97997498 0.72587680 -0.63508269
C -0.16140537 -0.64730952 1.12918730
N 0.29031114 0.63258365 -1.17856251
C 1.17826970 -0.05688462 -0.54743732
N 1.01936481 -0.74862851 0.65183820
O -1.17816124 0.03690491 0.58412682
H -0.43742707 -1.13620843 2.06018912
H 2.17759971 -0.12737515 -0.97412258
