9

O 1.1268072 0.22404076 1.3618685
C -0.12717143 0.42668474 -0.5723011
C -0.680109 -0.9666542 1.1565781
N -0.89530504 -0.48085296 -0.007872425
C 0.65740705 0.8659085 -1.5092958
N 0.3845443 -0.5145392 1.989548
O 1.5057851 1.3400029 -2.183268
H -1.3595983 -1.6842471 1.6036187
H -0.6123598 0.78965646 -1.8388757
