11

C 1.4457941 -0.8347038 -0.66497207
C -1.13944 -0.47324073 -0.46516475
C 0.16739088 -0.2539043 -0.17113186
C -0.92147404 1.126102 1.1131134
O 0.2926785 0.69464284 0.8588726
N -1.8420556 0.46910483 0.4602776
H -1.0474937 1.9001567 1.8576475
H -2.2576053 0.34330267 -0.58652246
H 2.0912113 -0.06777828 -1.1074144
H 1.2067322 -1.5751145 -1.4313484
H 2.0042617 -1.3285674 0.13664278
