11

C -0.7310213 -0.17162172 -2.313608
C -0.16502757 -0.12080324 -0.97110236
C 0.31591237 -0.08685535 0.13193546
C 0.9789239 -0.09786567 1.440653
O 2.0858347 -0.56609684 1.6105202
N 0.24786822 0.473431 2.4379659
H 0.00941874 0.14783798 -3.0549395
H -1.6069697 0.4783977 -2.40264
H -1.033826 -1.1930964 -2.5601237
H 0.6130069 0.39885414 3.3767831
H -0.7141203 0.73781836 2.3045554
