11

N -0.19425305 -1.19577579 -0.38900792
C -0.40487373 1.07677834 -0.45827416
C -0.98060258 -0.86611566 -1.44786110
O -1.12143134 0.56459922 -1.50057403
C 0.11046561 0.00108060 0.15095935
O -1.53816433 -1.53531805 -2.28809428
N 0.97060228 -0.02592517 1.34749436
H -0.37509561 2.14604192 -0.31231744
H 1.14888572 0.91053727 1.70740670
H 0.52456958 -0.59622035 2.07244183
H 1.85989721 -0.47968225 1.11782692
