9

O -0.05363398 1.7453012 -1.0045825
C -0.008243615 0.5823223 -0.33436018
N 1.0995799 0.071793586 0.17743757
N -0.61769783 -1.3110193 0.62498885
N 0.66688335 -1.0584837 0.73180676
C -1.0897017 -0.2753352 -0.06016593
H 0.8425355 2.1049438 -1.0373726
H -2.131948 -0.18349722 -0.31943628
H 1.2922263 -1.6760256 1.2216843
