9

O 0.8161293 -1.6753532 -0.7653309
C 0.26953644 -0.56253755 -0.2465087
N -0.30914342 -0.5151977 0.9411995
N -0.692715 0.75870234 1.023273
N -0.40824604 1.5262313 -0.006567399
C 0.21356604 0.7088393 -0.8491924
H 0.7003801 -2.388137 -0.12357022
H -1.1711702 1.1122276 1.8353175
H 0.5816628 1.0352253 -1.8086203
