10

O 1.2405484 0.50983435 -1.752481
C 0.47105843 0.08494706 -0.7372941
N -0.065051675 -1.0933781 -0.60783905
C -0.75107545 -1.0224726 0.5922992
C -0.61275685 0.20396517 1.1637056
N 0.1907106 0.9229937 0.2836717
H 1.3089987 -0.24167462 -2.3571756
H -1.3040768 -1.8734947 0.96703595
H -0.9893125 0.634993 2.0789635
H 0.51095724 1.8742865 0.3691137
