10

O 1.5404232 -0.37148416 1.2414716
C 0.80395854 -0.29413173 0.10630356
N 1.276472 -0.19705206 -1.060487
C -1.408057 0.8244544 0.17234325
C -1.4111608 -0.007649198 -0.7901722
N -0.5845191 -0.43104476 0.36824036
H 2.2941966 -0.21105832 -1.0314642
H -1.7065347 -0.43022645 -1.7318677
H 0.9215135 -0.5497447 1.9683584
H -1.7262921 1.667937 0.7572741
