13

C -0.61137483 -1.52761729 0.31211248
C -0.68773774 1.33610372 0.01736809
O -0.44346923 -1.81444424 -1.03721446
C 0.39474407 0.59859860 0.30034196
O 0.39095795 -0.66708071 0.81093972
N 1.70545586 1.05610939 0.21469784
H 2.36037303 0.33812864 -0.06765289
H -0.57345548 -0.99800877 -1.53543122
H -0.47735843 -2.46060414 0.85771936
H -0.57845124 2.33887257 -0.37690343
H -1.60528095 -1.11265411 0.52848346
H -1.68011004 0.99650105 0.27726842
H 1.80570692 1.91609508 -0.30172960
