13

C 0.67741966 0.37659445 0.060230553
C 0.11229561 1.3262997 -0.697694
O 0.07127427 -0.30409512 1.0760642
C -1.2784681 -0.6577327 0.85890335
O -1.4281927 -1.5799066 -0.16984493
N 2.0174084 0.009325818 -0.0042702407
H -0.8780169 1.7002317 -0.48058355
H 0.6837562 1.8168488 -1.4759827
H -1.5913059 -1.1495169 1.7788993
H 2.4941115 0.34362775 -0.82726437
H -1.1674196 -1.1528367 -0.99524903
H -1.8829411 0.24552467 0.6989073
H 2.1700783 -0.9743644 0.1778842
