11

C -0.8793702 -0.80089366 -1.1915895
C -0.12653625 -0.064256646 -0.14115198
C -0.2629276 1.1329726 0.46930698
N 0.75976276 1.3046558 1.3973895
C 1.4468249 0.22148576 1.2999761
O 0.98381305 -0.66347444 0.39346132
H -1.257213 -1.7554209 -0.8128908
H -1.731531 -0.19816558 -1.5164965
H -0.2493684 -1.0057069 -2.0616605
H -1.0183685 1.8900497 0.31546846
H 2.3349144 -0.061245725 1.848187
