11

C 0.014306375 1.0395747 0.2569614
C -0.4557659 -1.467487 0.7850509
C 0.78674996 0.69616574 -1.8728906
N 0.5211319 1.6056734 -0.91506416
C -0.032805156 -0.27672032 0.005834506
O 0.43310595 -0.47048676 -1.2749243
H 0.68312544 2.5888212 -1.0640286
H 0.3777499 -2.1660101 0.90862614
H -0.8087219 -1.1660007 1.7726401
H -0.25603738 1.6169292 1.1261947
H -1.2628392 -2.0004587 0.2715997
