11

C -1.64080675 -0.11837990 -1.38024658
C 0.16089130 -0.22752461 -0.00556208
C -0.41975385 0.95730504 0.23307300
N -1.52054426 0.99152826 -0.62603876
C 1.35586402 -0.92487471 0.53271507
O -0.58059954 -0.86379909 -0.97525679
H 1.07642703 -1.88480558 0.97937599
H -2.17827171 1.75112601 -0.69964425
H 2.07849388 -1.12694570 -0.26410822
H -0.17036104 1.75802656 0.91030175
H 1.83866109 -0.31165627 1.29539094
