11

N 0.49652788 0.5467097 0.1367894
C -0.35572177 -0.5565754 -0.22041312
O 1.5195799 0.6447811 -1.88367
C -1.309013 -0.8475552 0.90643275
C 1.3695807 1.070051 -0.7552016
O -1.305445 -0.23242848 1.9452094
H 0.22583328 -1.4647734 -0.43645576
H 1.9365855 1.9273648 -0.34878528
H -2.0221586 -1.6756867 0.7261103
H -0.9288952 -0.34232485 -1.132194
H 0.3731262 0.93043727 1.0621781
