11

N 0.10366961 -0.27533907 -0.6729757
C -0.470534 0.048377957 0.4850976
O 1.6361817 -0.43460673 1.3628032
C -0.43421704 -0.1523872 -1.9564193
C 0.49652532 0.1180324 1.5996002
O -1.5520453 0.23654743 -2.1554148
H 0.45214206 1.2850654 1.5487504
H 1.0521984 -0.6268706 -0.52941567
H -1.521095 0.3279543 0.49827805
H 0.270553 -0.4586457 -2.7451298
H -0.033378594 -0.06812833 2.5648258
