11

N 1.6172981 -0.06914897 -0.2937075
C 0.47847387 0.18021637 -0.99071765
O 0.3723246 0.14371552 -2.1989534
C -0.7180073 0.46854958 -0.11408274
C -1.158952 -0.5197004 0.875048
O -0.4704148 0.6594195 1.2722422
H 1.6589836 0.19132099 0.6801603
H 2.4744825 -0.18525471 -0.81447554
H -1.4497211 1.1369443 -0.563412
H -2.2103927 -0.56192034 1.1583933
H -0.59407467 -1.444142 0.9895047
