11

O -0.22241282 2.295025 0.53668165
C 0.81873053 0.0045642965 0.73677707
C -0.60986245 0.26994526 -0.89197135
N 0.2388256 -0.8421842 -0.34881884
C -0.07062838 1.1559726 0.20504075
C -1.267849 -0.97334373 -0.3610572
H 1.8824706 0.22108272 0.5940906
H 0.63414466 -0.40903208 1.7294044
H 0.8227433 -1.4218239 -0.93481004
H -0.6284857 0.5435158 -1.9433997
H -1.5976764 -0.84372216 0.6780627
