11

N 0.17720951 0.4807095 2.096995
C -1.1256583 -0.08105082 0.07995621
O 1.1630257 0.21341634 -0.015793975
C 0.64992946 -0.19964513 -1.2845191
C 0.12771668 0.24108775 0.8624975
O -0.7212684 0.05384844 -1.2707602
H 1.1285884 0.64562213 2.412807
H 1.1197761 0.39562488 -2.0687106
H -1.9309195 0.62310743 0.29561377
H 0.869621 -1.2690766 -1.4158324
H -1.4580204 -1.1036438 0.30774683
