12

C -0.77352834 -2.1584697 -0.052115083
N 0.19968906 1.2758151 -0.82507855
C 0.24111235 0.07822522 -0.20692489
N -0.83969104 -0.81323224 -0.3146979
C 0.7577793 2.0261872 0.17046262
O -1.7153599 -2.9151237 -0.095639035
H 0.86046606 0.7621225 0.9281329
H 1.1950157 -0.44443673 -0.20814556
H -1.7498806 -0.42880917 -0.5286534
H 0.124095395 2.2682111 1.0264285
H 0.25308177 -2.4843547 0.20887382
H 1.4472201 2.833866 -0.10264346
