12

C -0.34730485 1.7870437 0.91597825
N -0.91258234 0.9038154 0.046638217
C 0.8280725 -2.0062609 -0.08377127
N -0.24791302 -1.3648964 -0.2352329
C -0.15388808 -0.01617427 -0.7663883
O -0.9643677 2.4350438 1.730721
H -0.562316 -0.006618586 -1.7861552
H 1.8240503 -1.5978042 -0.30650136
H -1.8915938 0.6921848 0.21097682
H 0.8890882 0.34275037 -0.8173294
H 0.7884714 -3.0265324 0.29803973
H 0.7502832 1.8574489 0.7930247
