10

O 0.24705376 1.89983900 0.04928761
C -0.42980003 -1.03005697 -0.94841183
C 0.45127872 -0.46508684 0.14932635
C 0.97153887 0.92399749 0.02716284
N -0.99526344 -0.42418279 0.36094079
H 1.02789895 -1.15663372 0.76015034
H -0.58665959 -0.21598600 -1.67927985
H -1.34269741 0.53558477 0.42235814
H -1.40136564 -1.08175053 1.01093982
H 2.05801602 1.01427569 -0.15247417
