10

O 0.6390862 1.1004646 1.4543649
C 0.5294004 -0.72546333 -1.0353585
C 0.08957919 0.028099764 1.3442297
C -0.4721206 -0.4665593 0.043525152
N -0.6071288 0.60860926 -0.92155755
H -0.06062044 1.4160967 -0.6248748
H 0.0057382993 -0.67022073 2.198083
H -1.3383107 -1.1189309 0.13900742
H 1.4724185 -0.2402655 -0.7356609
H -0.25804207 0.06816928 -1.8617584
