10

O -0.9668572 0.4313668 -1.112538
C -0.42018396 -0.769288 -0.49180734
C -0.357 -0.53067636 1.0083331
C 0.3934792 0.32151312 -0.97895104
O -0.9381859 -1.1130214 1.894869
C 0.60170096 0.5586851 1.1571721
H 1.0536087 0.40967306 -1.8367717
H 1.0046049 0.84035546 -0.05721244
H -0.6024476 -1.706493 -1.0053965
H 0.23128082 1.5578852 1.4223028
