10

O -1.2788353 -0.7212003 0.4930073
C 1.2391356 -0.692545 -1.4056572
C -0.14526366 0.094965585 0.7418584
C 1.01167 -0.18089421 -0.13562569
O 2.1967719 0.17087185 0.017241245
C -1.3677216 0.63988495 0.13029952
H -1.3786861 0.8333267 -0.94067305
H 0.09096149 0.30975166 1.7823194
H -2.023153 1.2498515 0.7479579
H 1.6551208 -1.704013 -1.4307278
