10

O -0.89955159 0.09278112 2.31558806
C 1.54899409 -1.20427481 -0.37958518
C 0.54692843 -0.41240587 -0.15464808
N -1.00650830 1.18904714 -1.11368050
O -0.49736428 0.99428916 -2.18507328
C -1.17781810 0.64214005 1.28412345
C -0.46999935 0.40993836 -0.00990458
H 1.38473438 -2.24477414 -0.65133859
H -2.00241040 1.37812010 1.19718893
H 2.57299531 -0.84486115 -0.30267034
