11

C -0.77248406 0.87833786 1.5443082
N 0.5840024 0.51631314 1.1772463
C 0.834193 -0.054604016 0.09639274
O -0.14593698 -0.3904362 -0.83790994
C 0.25226253 -1.0263197 -1.9658259
O 1.3785675 -1.3371967 -2.2352374
H -0.7888975 1.9528402 1.7525889
H -1.0184381 0.36301124 2.477041
H -1.535773 0.6466715 0.7934495
H 1.8398684 -0.3346486 -0.20487174
H -0.62736404 -1.2139686 -2.5971816
