10

O -1.04124844 -1.25408907 -0.16858894
C -0.95842832 0.17833621 -0.30409836
C 0.56508952 0.05718223 -0.55747077
O -0.68826832 0.35007703 1.11571863
C 0.06577095 -0.80346802 0.63396587
O 1.38974786 1.13279689 -0.33308905
H 0.87642441 -0.47496280 -1.45612371
H 0.51712976 -1.48000017 1.35801328
H -1.78134239 0.72812068 -0.75802986
H 1.05512500 1.56600726 0.46970289
