10

O -0.5240749 1.2486463 0.7847826
C 0.67776537 0.64148957 0.2754384
C 0.25449693 0.021975987 -1.0463006
C -0.53998584 -1.0397002 -0.26922935
O 0.6512452 0.12526065 -2.1706681
C 0.11856038 -0.5652735 1.0447726
H -1.631039 -0.9892476 -0.27895376
H -0.218713 -2.0582862 -0.5126605
H 1.5883404 1.2185098 0.43600217
H -0.37659544 1.3966254 1.7368165
