10

O -0.10944367 -0.09105362 -2.26524653
C -0.06503096 -0.10984498 -1.06943986
C 0.32508512 -1.15721940 -0.01444450
C 0.70182540 -0.02437075 0.96539510
O -1.07704803 0.74663401 0.85566403
C 0.05256353 0.97155259 -0.00797952
H -0.44188474 -1.84329136 0.35175152
H 0.28260543 2.01925887 -0.20103972
H -0.88456644 1.21356160 1.68929826
H 1.21589447 -1.72522696 -0.30395878
