17

C -2.4815204 -0.9263021 0.59744734
N -1.3245754 -0.42109925 -0.116779394
C -0.2629604 0.06942218 0.62619996
O -0.34841374 0.21559776 1.8381721
N 0.8557963 0.42193237 -0.09327437
C 2.0681887 0.7611849 0.6226684
C 0.9320119 0.34746537 -1.5383061
H -2.26267 -1.8322451 1.1779312
H -2.8340538 -0.16302131 1.2952098
H -3.2754912 -1.1413908 -0.12083109
H -1.0902082 -0.9267976 -0.9582332
H 2.8546076 0.011423159 0.45899415
H 1.8359772 0.8042004 1.6870258
H 2.4513435 1.7359943 0.29784274
H -0.021266298 0.6423087 -1.9872595
H 1.6929506 1.0535604 -1.8847753
H 1.2102842 -0.65223324 -1.9020326
