11

N -1.1285732 -0.12533057 -1.6307371
C 0.24462858 0.14518236 0.29371327
C -0.37801048 0.634896 -0.92622554
N -0.78076535 -2.1259694 -0.0063531315
N 1.0805404 0.942783 1.1081207
C -0.14949039 -1.1503081 0.4192379
H 2.0404947 0.62770087 1.1514875
H -0.13788833 1.6796304 -1.1551173
H -1.49704 0.34305903 -2.4513445
H -0.014345652 -2.077348 1.1588739
H 0.72044975 1.1057043 2.0383441
