10

O -1.7661548 -1.1087034 1.211437
C -0.87592953 -0.5495868 0.6014587
N -0.8650432 -0.14097762 -0.72186935
C 0.34452242 0.46540192 -1.0517298
C 1.1126642 0.44998792 0.051988333
N 0.37312683 -0.16663705 1.0596935
H -1.6500312 -0.28550273 -1.3322966
H 0.5453105 0.8512477 -2.0380888
H 2.1120498 0.8203122 0.21422699
H 0.6694847 -0.33554217 2.0051804
