10

O -2.27498059 0.31398396 1.27992852
C 0.04464420 -0.46860496 0.40768450
N -1.07663855 -0.74579129 -0.52904339
C -1.39033066 -0.12242203 0.61288480
C 1.07292068 0.49939691 -0.06981744
N 0.95692440 1.08311376 -1.18584650
H -1.39228555 -1.65575944 -0.82722460
H 1.72838732 1.73324216 -1.32989519
H 1.90346636 0.65378383 0.62989003
H 0.42789212 -1.29094293 1.01143964
