11

C -0.936592 1.3029402 0.29468006
N -0.08952224 0.15969132 0.02790027
C -0.38145927 -1.1505831 0.008945392
N 0.69577986 -1.8583527 -0.2751608
C 1.6407555 -0.8966647 -0.42287955
N 1.2188208 0.33884808 -0.2502365
H -0.5738348 1.8298767 1.1797397
H -0.91747403 1.9784517 -0.56280047
H -1.9578736 0.9540436 0.46633086
H -1.3717526 -1.5427078 0.20149687
H 2.673152 -1.1155435 -0.6680157
