11

C -1.06778916 1.23436302 0.30466779
N -0.00838629 0.29353858 0.00763167
C 2.06805085 -0.28732223 -0.46541667
N 1.19893863 -1.39756630 -0.33801827
C -0.05148409 -1.02016784 -0.05223239
N 1.26289498 0.75780024 -0.23935778
H -2.00959433 0.69706497 0.42271704
H -1.14278463 1.94715781 -0.51773084
H -0.82063444 1.76619764 1.22436986
H -0.92597645 -1.63667183 0.10009467
H 1.49676455 -2.35439426 -0.44672495
