11

C 0.0062615727 1.1468024 -0.17339177
C 0.27659106 -1.4319378 0.14958584
O 0.90552586 0.087619185 -0.45100248
C -1.2680514 1.1168674 -0.8922776
C 0.18984906 0.3711245 1.067929
N -2.2836928 1.0849893 -1.4447465
H 0.8526152 -1.9175334 -0.6459917
H 1.0389336 0.7967638 1.6274736
H -0.78994966 -1.475365 -0.05186977
H 0.52596587 -1.8649731 1.114952
H 0.5459514 2.0856426 -0.30066067
