11

C 0.72883 -1.1663463 0.36666995
C -0.6121313 0.9615784 1.1124623
O -0.5804579 -0.5658104 0.35696766
C 0.3301717 1.070555 -1.2562625
C -0.75063217 0.68892986 -0.350575
N 1.168502 1.392597 -1.9831553
H 0.89581907 -1.6436503 -0.6026412
H -1.7068064 0.64619875 -0.8813432
H -1.6475654 0.9357502 1.4928358
H 1.481011 -0.40781575 0.58474934
H 0.69325924 -1.9119865 1.1602924
