11

O -0.24728793 -1.16942551 0.53506053
C -1.32034945 -0.62718670 -0.49075226
N 0.33028215 0.90368628 0.13969200
C 0.47857643 -0.21153660 0.85645028
C -0.49583666 0.53884316 -1.03801522
O 1.31657341 -0.25695056 1.88215798
H -1.12894866 1.38680396 -1.30846884
H 1.17598423 -1.09670872 2.34270886
H -1.30455946 -1.45351042 -1.21591977
H 0.19574119 0.33363777 -1.88930656
H 0.99982521 1.65234721 0.18639277
