11

O -2.0127327 0.9874874 1.3789204
C -1.0802032 0.6118017 0.7259367
N -0.9747349 -0.5511976 -0.013191882
C 0.40712634 -0.8063267 -0.35708565
C 0.94109184 0.6311127 -0.3244185
O 0.08034808 1.309581 0.59021455
H -1.6046405 -1.2967663 0.23337094
H 0.9054924 -1.444735 0.3824513
H 0.5108591 -1.2612357 -1.3456576
H 0.8588658 1.1100715 -1.3051217
H 1.9685282 0.71020687 0.034581214
