11

N -0.734746 -0.7583146 1.5614147
C -0.19389139 -0.13204229 0.42119336
C -0.12933606 -0.61181974 -0.86974686
N 0.40367427 0.39420453 -1.6177341
N 0.6928467 1.4826605 -0.9065793
C 0.33197582 1.1783074 0.33224478
H -0.21788706 -0.5299171 2.4021711
H -0.77259403 -1.7633966 1.4613643
H -0.4183262 -1.5575926 -1.3040104
H 0.58568126 0.39349946 -2.6066756
H 0.45260254 1.9044106 1.1263577
