10

O -0.10394217 1.06177255 -1.04739990
C 0.88384497 1.73968971 -0.54784772
N 1.76534940 2.36947324 -0.13957157
C 0.35720693 -1.50402292 0.02955045
C -1.00931901 0.50267744 -0.10975839
N -0.61201508 -0.67872820 0.38899794
H 1.02454401 -1.22521136 -0.77272734
H -1.50404583 1.20463158 0.54250821
H 0.41531884 -2.46184722 0.52440125
H -1.21694183 -1.00843502 1.13184712
