10

O 1.6675651 -0.12811296 -1.4447838
C 1.1614331 0.7892841 -0.84342027
N 0.27536342 0.64608574 0.18661447
C -0.21577434 -0.6587594 0.57449275
C -1.6495682 -0.81537426 0.28302607
N -2.7811313 -0.91686153 0.076031975
H 1.384967 1.8499353 -1.0581214
H -0.1472175 1.4718717 0.58399904
H 0.35495844 -1.3943691 0.0024448996
H -0.05059549 -0.8436998 1.6397163
