10

C -0.99125624 0.3838526 -1.3107721
O -0.53881216 -0.39582843 -0.1930843
C 0.52418864 0.094359525 0.4329977
O 1.1157488 1.1057154 0.14464468
C 0.9637816 -0.7648254 1.6123914
O 0.4059378 -1.7731082 1.9470671
H -1.8502151 -0.15548167 -1.7055875
H -1.2796694 1.3866845 -0.98376095
H -0.20292741 0.4639906 -2.063445
H 1.8532238 -0.3453591 2.1195493
