10

C -1.5822608 0.37319693 -0.66865593
O 2.17225 -1.9733293 0.635111
C 0.4989472 0.983206 0.4207688
O 0.669216 -0.36295253 0.23002788
C 1.8756546 -0.822839 0.7193969
O -0.6653045 1.3130804 -0.055449758
H -2.444798 0.9775395 -0.9445297
H -1.1234554 -0.07768436 -1.5516764
H 2.464569 -0.0064697955 1.1684341
H -1.8648182 -0.40374777 0.04657318
