10

N -1.49773923 0.95865180 1.38823269
C 1.20613920 0.04112451 -0.62727619
C 0.10938562 -0.61841836 -1.28940894
C -0.71515439 0.18224733 0.88482012
C 0.15507387 -0.66695407 0.31053245
H -0.64726273 0.10360881 -1.63223596
H -2.48315393 0.95131438 1.14408168
H 1.31268502 1.12681092 -0.53157048
H 0.40828159 -1.58762507 0.82968385
H 2.15174497 -0.49076038 -0.47685897
