10

N 0.22847748 0.37301934 2.24562
C -0.3215406 -0.1538684 -1.2874565
C -0.07042377 -0.7454074 0.10895318
C -0.3240397 -0.32024774 1.4317393
C 0.35163617 0.6951795 -0.26379246
H 0.24962164 -0.71025735 -2.0283022
H -1.3292414 0.10137668 -1.6106653
H -0.42004144 1.4055332 0.046040762
H 0.93984795 0.87377566 1.2394191
H 0.69570357 -1.5191035 0.11844391
