10

N 0.90453476 1.9273437 -1.8477833
C 0.35402557 1.0800529 -1.2834855
C -0.32682687 0.0232305 -0.5729254
C -0.48270082 0.12081995 0.92859876
C 0.46474838 -0.878605 0.348805
H -1.14423 -0.43005595 -1.1278095
H -1.421786 -0.22727619 1.3457782
H -0.066553794 0.9979589 1.4136127
H 0.19029178 -1.9285702 0.35792896
H 1.528497 -0.68489873 0.43728033
