13

C 1.3683105 0.3144303 -0.48938167
C -0.07282469 0.3372425 -1.0115874
O -1.223142 0.8619287 1.1747448
C -0.4689367 -0.03507832 0.4329914
O 0.9232711 0.019493321 0.8460015
N -1.1237024 -1.2883838 0.57410693
H -0.68549925 1.6549709 1.2933937
H -0.45388925 1.3140054 -1.3180965
H 2.0041971 -0.48401108 -0.8898662
H -0.5938556 -2.0310488 0.12923688
H -1.2583456 -1.5100029 1.5543277
H -0.3279913 -0.41720146 -1.7584221
H 1.912408 1.2636552 -0.5374489
