11

N -0.2975511 -1.2762507 -1.6046041
C 0.13483876 -0.7022782 0.82578933
C -0.31276876 -0.40172008 -0.50892234
N 0.60336643 0.29381597 1.5137594
C 0.6406542 1.5082706 1.7611564
N -0.8910536 1.9502794 -0.24234544
N -0.7338866 0.86082995 -0.57421327
H 0.035390917 -1.6803323 1.2799951
H 0.3827715 -1.0455211 -2.3191717
H -1.2071848 -1.4404435 -2.0153704
H 1.645423 1.93335 1.883927
