11

O 0.40006238 1.0030918 2.3468335
C 1.04744 0.43601957 0.08086124
C -1.0114025 -0.042354774 0.5434084
C -0.14786078 -0.102544196 -0.7528042
C 0.24274315 0.52716035 1.2405753
N 0.16166712 -1.3456072 -1.1818657
H -0.4283224 0.62541145 -1.5350181
H 2.0886228 0.5705983 -0.18351653
H -1.8693707 0.6320772 0.54773134
H 0.8055445 -1.2541354 -1.9704512
H -1.2891238 -1.0497173 0.8642461
