11

O 1.9722457 -1.1796036 -0.7302418
C -0.32786062 -0.39995393 -1.0140376
C -0.3360594 0.72961473 0.98543537
C 0.89987653 0.18605892 0.9609633
C 1.0307614 -0.5552273 -0.2967708
N -1.0644958 0.5231824 -0.16376948
H 1.6769636 0.28162995 1.7052369
H -0.82206494 -1.3757381 -1.0865524
H -0.18350726 -0.006000468 -2.0241425
H -2.0691104 0.4727223 -0.11427799
H -0.7767488 1.3233149 1.7781569
