11

O -0.81739265 2.159195 -0.69717664
C -0.42208272 1.0848289 -0.3086959
C 0.34695098 0.0029420948 -1.0770088
C 0.54343635 -1.0878351 -0.05852069
C -0.015116888 -0.6980117 1.0895262
N -0.5891532 0.5802402 0.9651581
H 1.2841642 0.42259026 -1.4592301
H -0.23793136 -0.31002685 -1.9483159
H 1.0510296 -2.0246797 -0.23490268
H -0.072346725 -1.214243 2.038003
H -1.0715574 1.0850003 1.6911638
