11

N 2.3451993 -0.9080667 0.24907804
C 0.23260045 -0.079989105 -0.64745325
C -0.50939363 0.5881322 2.7259328
N 0.013155281 -0.09189062 -2.037603
C -0.78116345 0.46029678 0.24577025
N 1.3542304 -0.52478385 -0.15902005
N -0.6910773 0.4457488 1.512247
H -1.6583381 0.89086944 -0.22281876
H 0.6682932 0.47261336 -2.56262
H -0.9137119 -0.23375437 3.3337011
H -0.05979445 -1.0191761 -2.4372144
