10

N -0.82330084 0.8731097 1.3532761
C -0.17251115 0.17682558 0.35058993
C 0.3490889 -1.0675147 0.21211162
N 0.9855662 -1.1471218 -1.0259497
C 0.8109824 0.009293074 -1.5514938
O 0.11336148 0.88119113 -0.77331245
H -1.5004967 1.5370198 1.0058405
H -1.232608 0.26650918 2.049498
H 0.3322462 -1.9030375 0.8948973
H 1.1376716 0.3737252 -2.5154576
