10

N -1.6637344 0.280191 -0.30274746
C -1.6112759 1.4749222 -0.58478475
C -0.7878929 -0.58962643 0.12023973
N 1.6064109 -0.76177686 0.49977738
C 0.5528672 -0.008380647 0.0647491
O 0.6961503 1.1309284 -0.38341156
H -1.6433058 1.8695219 -1.598012
H 2.4786315 -0.2711513 0.6176354
H 1.4371173 -1.5503552 1.0987767
H -1.0649681 -1.5742729 0.4677774
