11

O 0.75398429 -0.54636449 -2.17758400
C 1.57874760 -0.43616159 0.03938786
N -0.71445968 0.10957113 -0.58986785
C 1.59492213 -0.23805453 1.33247294
C -1.14768117 0.43489614 0.74857028
C 0.51509797 -0.30163993 -1.01464806
H 2.55306124 -0.76193543 -0.33743312
H -1.46226722 1.48133674 0.81765261
H -0.32027925 0.29096636 1.46187764
H -1.97014452 -0.21596101 1.06284200
H -1.38098162 0.18334667 -1.34327053
