11

C 1.84388836 0.50410979 -0.30659829
N 1.02173390 -0.48226107 -0.62026129
C 1.29040977 1.47179083 0.61589927
N 0.09104389 0.91507476 0.76343121
C -1.35266795 -0.84733890 -0.24223363
N -0.06777920 -0.27487360 0.08693469
H -1.78528234 -0.37735668 -1.13120777
H -0.64823860 1.20399426 1.38842742
H 2.83500451 0.52099622 -0.73920007
H -1.20275793 -1.91171217 -0.42555378
H -2.02535457 -0.72242344 0.61036240
