11

C 1.8579196 0.48693353 0.24307226
N -0.07228402 -0.26549312 -0.10952426
C 1.1965632 0.702042 1.5119627
N 1.0880845 -0.047258493 -0.6892596
C -1.3069606 -0.4414866 -0.8386384
N -0.0030316792 0.23834407 1.1711793
H 2.8883812 0.71575385 0.0074224537
H -1.651592 0.5004663 -1.2771215
H -1.1225557 -1.1690967 -1.6295544
H -2.066736 -0.8365257 -0.15914108
H -0.80778825 0.11632095 1.7696027
