11

C 0.5339892 -1.6235999 0.09306597
N 0.076508924 -0.24952616 0.036215384
C -0.0994589 1.8569463 -0.6374948
N 0.69535506 0.7034741 -0.70260257
C -1.1955466 1.4130585 0.1643425
N -1.0946854 0.13641831 0.494943
H 1.1993647 1.6492131 -0.24425273
H -2.0690255 1.9751074 0.4694804
H 0.04670054 -2.2163079 -0.68588734
H 1.6134714 -1.619138 -0.06508974
H 0.29332706 -2.0256462 1.0772797
