9

N -1.508016 -0.6870417 0.65441203
C -0.93915755 -1.3764851 1.5713949
O 1.4506489 1.4748647 0.037831027
C -0.43218476 0.14083119 2.1845653
C -0.3477441 0.18792173 0.8483449
C 0.615968 0.62907255 -0.20269503
N 0.44352144 -0.0026614678 -1.3872124
H -0.33172506 -0.6250452 -1.555859
H 1.0486894 0.25854322 -2.1507814
