9

N 1.44007376 -1.00104445 -0.31383313
C 0.74208110 -0.26032746 -2.08817808
O -1.15327371 1.65645181 -0.45515529
C 0.48683466 0.00147007 -0.79932432
C -0.51885164 0.73932710 0.02055498
C 0.88955526 -1.72644916 -1.21411481
N -0.62105331 0.27591327 1.28811544
H 0.00399836 -0.42487462 1.65556214
H -1.26936481 0.73953309 1.90637317
