9

N 0.63876295 0.6362543 -1.527546
C -0.21173795 -0.5242564 0.86876434
O -0.0029930857 -1.3148283 1.7633485
C 0.7302365 -0.41473198 -0.25270224
C 1.6300484 0.5879785 -2.254599
C 1.7952116 -0.58585113 -0.92762053
N -1.2680112 0.32345456 0.7766785
H -1.4019246 0.9456741 -0.0009096239
H -1.9095927 0.34630626 1.5545863
