9

N -0.26103678 1.2196412 1.5196161
C -0.36920664 1.157629 0.16585284
O -0.7445093 2.0677407 -0.5414512
C 0.015165381 -0.13825144 -0.41306344
C 0.30386928 -1.162323 -0.9755828
C 0.6339301 -2.341692 -1.6286448
N 0.9081134 -3.3237765 -2.1714294
H 0.037058987 0.4355195 2.0756009
H -0.52338475 2.0855122 1.9691019
