12

N -0.088724345 1.1734507 -1.6643873
C -0.050071195 0.42608336 -0.58748806
C 0.5254361 -1.6712389 0.9059058
N 1.1915886 -0.6430908 1.383823
C 0.50317085 0.42847642 0.8444259
N -0.5977048 -1.4661436 0.19334167
C -0.9432901 -0.07092569 0.36508682
H 0.7627225 1.455426 -2.1319883
H -1.9572494 0.24496712 0.62253034
H 0.8849081 -2.6897511 1.0363108
H -0.96003044 1.3711177 -2.1410873
H 0.7292441 1.4416288 1.1735265
