12

N -1.1185064 0.52772284 -1.4899147
C 0.28544715 -0.43274823 0.2510143
C 0.7112227 0.89727235 0.051442396
N -0.60643226 0.71250194 0.7307608
C -1.5564485 0.8585861 -0.34497494
N 0.7888135 -1.559613 0.8802475
C 0.24020435 0.124721214 -1.1592116
H 1.538307 1.515297 0.37362316
H 0.90907806 -0.22716904 -1.9366758
H -2.557523 1.2166499 -0.12946475
H 1.2787839 -1.3578612 1.7415156
H 0.08705365 -2.27536 1.0316378
