10

O -1.6860567 -0.59670573 -1.5279186
C -0.8057341 -0.26740518 -0.77897894
C -0.37646306 -0.6189916 0.6599691
C 0.77185744 0.40019292 0.44509792
N 0.24287292 0.6080852 -0.899122
H -1.1111689 -0.34917662 1.4213983
H -0.06656839 -1.6572526 0.78870726
H 0.72777575 1.2888055 1.0814223
H 1.7805408 -0.022275621 0.4663469
H 0.522944 1.2147236 -1.6569226
