10

O 0.32451261 -0.62931123 -1.00499817
C -0.11446056 0.64467287 0.63671415
C -0.38020660 -0.76324672 0.16753509
C 0.66304676 0.74800642 -0.68291246
N -1.00700591 -1.73772840 0.63664756
H -1.00734913 1.26702564 0.71870620
H -0.95965366 -2.53952242 0.00726435
H 0.47914127 0.70975312 1.55081640
H 1.74563541 0.86874711 -0.59819952
H 0.25633955 1.43160347 -1.43157394
