11

C 0.5091608 -0.9640124 1.5005356
C 0.16432555 -0.12559032 0.3193436
N 0.63397515 1.034954 -0.006911313
C -0.032525804 1.3604399 -1.1802366
C -0.8777328 0.36049482 -1.4993769
O -0.76224834 -0.6055788 -0.54414177
H -0.38443327 -1.1987041 2.088676
H 1.2147418 -0.41761607 2.1262224
H 0.9651573 -1.911014 1.1936668
H 0.15010183 2.289991 -1.7008924
H -1.5805222 0.17663582 -2.296885
