11

C 1.2646836 0.84396684 -0.49070618
C 0.8037305 1.2031857 -1.8130314
N 0.57638043 -0.051985044 0.16585234
C -0.06103067 -0.9647588 0.58627343
C -1.2623316 -1.1899709 1.4178896
O -0.16926192 0.72594047 -2.3689759
H -2.02101 -1.6405746 0.770435
H -1.0405046 -1.9139628 2.2068427
H -1.6553904 -0.26376554 1.8484497
H 2.139312 1.2718623 -0.016596468
H 1.4254225 1.9800621 -2.3064322
