11

C -0.4426202 0.5295058 0.7752633
C -1.8837492 0.6662733 0.5525703
N 0.50460184 -0.18866715 0.8346075
C 1.5584656 -0.72661006 0.24400362
C 1.5620866 -0.46690777 -1.1674392
O 0.68340427 0.17302671 -1.7354373
H -2.2989414 1.440529 1.2014736
H 2.3045607 -1.2594149 0.8151103
H -2.4148831 -0.27902094 0.6973632
H 2.4233649 -0.87520856 -1.7267206
H -1.9962901 0.9864946 -0.49079487
