9

O 2.5040329 -0.30731276 -0.05205179
C 1.427193 0.2186132 -0.13495319
C 0.21262193 -0.2339557 0.6629403
C -1.0231391 -0.0937413 -0.10576319
C -2.012196 0.03845982 -0.7743363
H 1.2501466 1.0971681 -0.7888815
H 0.16248527 0.39506704 1.561567
H 0.37467542 -1.2650876 0.9957606
H -2.8958194 0.15078922 -1.364282
