9

O 1.31496634 0.38438502 0.12199353
C 0.49993030 0.62013527 -0.93660851
C 0.58738159 -0.30071451 1.03683324
C -0.67331117 -0.50772200 0.58659881
C -0.73060036 0.09932680 -0.71549905
H 0.94412710 1.16317837 -1.75744331
H 1.10737130 -0.56537271 1.94596771
H -1.47030277 -1.02555990 1.10127092
H -1.57956170 0.13234369 -1.38311340
