9

O 1.0894492 0.82656276 0.14719029
C -0.8195554 -0.24199925 0.5700817
C -0.3443414 -0.63825685 -0.72776294
C 0.09069597 0.6421969 1.0439477
C 0.8102997 0.04197419 -0.92378896
H -0.81019515 -1.3369323 -1.4077389
H -1.716967 -0.58066064 1.0682784
H 0.17472422 1.2064335 1.9612999
H 1.5258898 0.08068165 -1.7315073
