9

O 0.32050845 -1.2120154 -0.33555177
C -0.90758497 0.75276583 -0.6299719
C 0.20506464 0.8658234 0.41141158
C 0.90994626 -0.3576216 0.45411947
C -0.7669173 -0.5755932 -0.93988544
H 1.7940044 -0.69921446 0.9772449
H 0.5752389 1.7964864 0.8287632
H -1.2826911 -1.2269412 -1.632984
H -0.8475693 0.65630996 0.866854
