10

O 1.17900157 -0.47983855 -1.23187769
C 0.39413914 -0.01438252 -0.21859016
N 0.43641624 -0.72204480 1.07154374
C -0.86082918 -0.45389309 0.42074832
C -0.14364631 1.36245638 0.13802081
N -1.20804033 0.95488441 0.75139375
H 0.87282916 -0.10988561 -2.07076356
H -1.57959620 -1.23172733 0.19425397
H 0.69066289 -1.69015149 0.86457915
H 0.21906322 2.38458242 0.08069142
