10

O 0.11437957 -1.546308 -0.69215804
C -0.7726738 -0.64035326 -0.4015073
C 0.91854346 -0.100333825 -0.38809204
O 0.28828633 0.61835 -1.3032223
C -0.07509504 0.034363423 0.7719954
O -0.366311 1.3208212 1.1628184
H 2.0031433 -0.24425928 -0.38272604
H 0.020917404 -0.61935925 1.6406069
H -0.32773048 1.8523419 0.34861204
H -1.8034596 -0.6752631 -0.75632703
