10

O -0.12585646 -1.1782477 -1.0841717
C -0.065175876 -0.47886816 0.11539623
C -1.31187 0.37565893 0.3341075
O -1.483867 1.0065283 1.3464336
C 1.1436754 0.44052354 0.14381924
O 1.928142 0.45078492 -0.7737842
H 0.67310816 -0.93193 -1.5791153
H 0.023739899 -1.1546419 0.982037
H -2.025451 0.37715912 -0.51284367
H 1.2435545 1.0930332 1.028121
