10

O 1.3039949 -1.2751062 -0.01151535
C 0.25662318 -0.54503477 -0.52101636
C 0.16588087 0.9808102 -0.2444402
O -1.2502625 0.9324672 -0.5032147
C -0.93422425 -0.15124984 0.39313817
O -0.02752204 0.6848407 1.168561
H 0.019847022 -0.8821857 -1.5304755
H 0.7349787 1.8636825 -0.5321942
H 1.4679828 -0.9251921 0.8796918
H -1.7372986 -0.68303204 0.90146536
