11

C 1.3798736 0.00698664 0.021991087
N 0.23936835 -0.62689877 -0.6292342
C -0.9980892 -0.5000869 0.10947551
C -1.4268137 0.90238595 0.33463994
N -1.7079049 2.0139625 0.46891403
H 1.2471756 1.083227 0.21034315
H 2.2655287 -0.13505197 -0.6046219
H 1.5680408 -0.4892217 0.9804375
H 0.11604745 -0.24381703 -1.5593224
H -1.7982856 -1.0259459 -0.41921675
H -0.8849409 -0.9855396 1.0865942
