9

N -0.88761955 -0.57493836 -1.2263458
C 0.23348497 -0.14760144 -0.5529376
C -0.052720003 0.36782223 0.78699255
N 0.9589246 0.8033813 1.4879444
N 1.838146 1.1759701 2.0883045
O 1.3473552 -0.16015391 -1.0429081
H -0.7020256 -1.0917947 -2.0737298
H -1.7076514 -0.84246606 -0.7067557
H -1.0278944 0.46978077 1.2394356
