12

C 0.7165237 1.8502002 0.6428724
N 1.7535844 -0.16955471 -0.029540911
C 0.6356858 0.42628992 0.16316788
N -0.63916194 -0.009393905 0.006868404
C -0.98191327 -1.3309313 -0.4726806
O -0.26310015 2.5247211 0.84496385
H 1.753464 2.2028341 0.782294
H -0.605416 -1.5035541 -1.4884279
H -2.0699604 -1.4280894 -0.48405024
H -1.3532487 0.67438084 0.19989158
H -0.5744515 -2.1074471 0.188061
H 1.6279942 -1.1294554 -0.35341942
