11

N -0.5464795 -1.0362839 -0.20632233
C -0.6417214 0.35304028 -0.26411164
C 0.71126133 0.80775857 0.28090903
N 1.4652355 -0.40756217 0.5968206
C 0.69681764 -1.3804723 0.29685384
N -1.667927 0.9547182 -0.69237494
H 0.59023035 1.4211268 1.1818262
H 0.9612407 -2.4280326 0.41187006
H -1.2854562 -1.6571051 -0.49641505
H -1.5396894 1.9651825 -0.65238154
H 1.2564884 1.4076297 -0.456674
