11

N 0.76188636 -0.6615121 -1.0274954
C -0.6410123 0.3883235 0.5695854
C 0.2349895 0.5135818 -0.57897836
N 0.5278677 1.792838 -0.71103394
C 0.41006616 -1.4952427 -0.058784466
N -0.34868637 -0.9813856 0.9271549
H 0.7397418 -2.5288215 -0.034399733
H -0.74331605 -1.5246664 1.6771104
H -0.12779601 1.7758406 0.4565988
H -1.7022511 0.54489756 0.35791346
H 0.88851047 2.176147 -1.577671
