11

N -0.35856712 0.49435157 1.9618931
C -0.15727669 0.18180272 0.6135068
C 0.52584004 -0.8688175 0.055236783
N 0.34691486 -0.712721 -1.3122311
C -0.42002732 0.384771 -1.4945253
N -0.7393769 0.9549341 -0.35652742
H -0.75618124 1.4208171 2.0436547
H 0.47724438 0.4212213 2.5249372
H 1.0856025 -1.6915044 0.4707866
H 0.7114164 -1.3145477 -2.0310295
H -0.71558905 0.72969264 -2.475702
