10

O -0.38908085 -1.6138211 1.3404491
C -0.21728869 -0.5954821 0.48826793
C 0.7448176 -0.5200998 -0.5199144
N -0.9758976 0.50663245 0.5143201
C -0.49495873 1.2774463 -0.46568978
N 0.50400627 0.7547224 -1.1970073
H 1.3494594 -1.2874407 -0.9805458
H -0.87164384 2.2733455 -0.66004765
H 1.4633685 0.56784666 -0.4484801
H -1.112782 -1.3631493 1.9286479
