12

C 1.4015925 -0.2928616 0.8828063
C 0.33530992 -0.5038504 -0.18524376
C -0.59102297 0.69528204 -0.31789878
O -0.22141668 1.8360251 -0.11294669
N -1.8680412 0.39768746 -0.6992029
H 2.113817 -1.1237226 0.88951904
H 1.94561 0.6365834 0.6956604
H 0.95412564 -0.22092098 1.879194
H -0.24784462 -1.4128371 0.014805094
H 0.8072544 -0.64621985 -1.1662459
H -2.1421857 -0.5317754 -0.9685479
H -2.4871988 1.16661 -0.9118987
