12

C 0.86626269 -0.03754304 0.53508803
C -0.61184710 -1.18678425 -0.90586083
C 0.44781591 1.41494813 0.39136731
O 0.64069101 -0.77468424 -0.67363849
N -1.58883570 -0.97721850 -0.12532201
H 0.33116398 -0.52605836 1.35517008
H 1.94284248 -0.12439290 0.69990592
H 0.72525527 1.96484768 1.29699455
H -0.63532334 -1.72992610 -1.85676454
H 0.94983897 1.87860472 -0.46354768
H -2.43335502 -1.38975960 -0.51199814
H -0.63450964 1.48796653 0.25860600
