9

O -0.55822209 0.08018907 -0.58496352
C -0.65127042 -1.19722459 -0.98821593
N 0.42620178 2.83441126 1.06739944
C 0.37276873 0.28094635 0.48521630
C 0.38530309 1.71255209 0.79323089
O -0.03937964 -2.11745256 -0.52107984
H -1.37766676 -1.25782235 -1.80915365
H 0.06845981 -0.28916504 1.36905169
H 1.37380573 -0.04643412 0.18851465
