9

O 1.8804287 1.4744167 0.20166004
C -0.26722977 -0.9024409 -0.90573084
N -0.9146151 -0.7366529 0.2134401
C -0.16128859 0.35820398 0.90871394
C 0.95142764 0.71932596 0.13038686
O 0.8021359 -0.14885676 -1.0684835
H -1.4159333 0.30076948 0.25428393
H -0.5438381 -1.5907718 -1.6931609
H -0.33108744 0.5260061 1.9588903
