9

O -0.56701654 -1.6607151 1.2950667
C -0.61191374 -1.565133 0.09995404
N 0.9473095 2.5610805 -1.3778056
C 0.2415139 0.5949027 0.20269203
C 0.6288493 1.6805636 -0.7005448
O -0.24231565 -0.48423845 -0.6058224
H -0.9617477 -2.3396914 -0.59498334
H 1.1049293 0.27383196 0.79321074
H -0.5396085 0.9393996 0.8882324
