11

C -1.27876224 0.67657568 0.10252385
O -0.20285889 -1.22160773 -0.88880935
C 0.01979979 0.11059430 -0.47323180
C 1.13744529 0.38685161 0.49655052
O 1.75098617 -0.76603668 0.71465834
H -1.55261903 0.12986463 1.01121896
H -2.08306592 0.55230098 -0.62753381
H 0.30113178 0.73616246 -1.34167287
H 2.48378253 -0.60376865 1.32420852
H 0.58437386 -1.73616704 -0.66599368
H -1.16021391 1.73523039 0.34808153
