11

C -1.1729844 0.19991702 0.82924026
O 1.9818337 -0.3334194 -0.35308352
C -0.22436832 0.22242604 -0.36980674
C 1.1536187 0.5885684 0.11291353
O -0.3884707 -0.97059405 -1.1092777
H -0.8900427 -0.60775185 1.5127842
H 0.48482764 -1.2530432 -1.4121407
H 2.8761177 -0.104323 -0.06560518
H -1.133025 1.1503465 1.3679323
H -2.1923442 0.012723368 0.48110676
H -0.49516296 1.09515 -0.9940633
