11

O -1.2020059 1.7330924 -2.0305085
C 0.6768764 -0.2260358 1.306493
N -0.5037709 2.1157115 -0.5246155
C 0.1583839 -0.9591684 0.11014363
C -0.64888555 1.0008662 -1.08647
C -0.4324264 -0.42064995 -0.9646754
H 1.7509419 -0.41224864 1.4090528
H -0.77943146 -1.0302626 -1.7936329
H 0.2793191 -2.0438411 0.11945738
H 0.5086461 0.8511232 1.2441244
H 0.19235304 -0.6085871 2.2106311
