11

O 1.253427 -0.65678704 -2.1071765
C 0.62284404 -0.3469135 -1.117639
N 1.1405339 0.03319341 0.09743915
C 0.13081913 0.33660364 1.0820395
C -1.1390457 0.09343369 0.3079539
C -0.8618805 -0.29309067 -0.93723035
H 2.1315796 0.08784153 0.25910208
H 0.19448392 1.3749123 1.4340438
H 0.19687885 -0.3160053 1.9609545
H -2.118225 0.22829264 0.75336456
H -1.5514148 -0.54148066 -1.732852
