11

O 0.80398391 0.11918543 -2.81261397
C -0.79420776 -0.27750452 0.49944591
N 1.64953598 0.56378736 -1.40228988
C 0.25375159 0.20244479 1.45286060
C 0.49483948 0.08511833 -1.53332699
C -0.69552805 -0.33669033 -0.83511553
H 0.51639163 -0.60731841 2.14142011
H 1.15863244 0.54309112 0.94530420
H -0.14582536 1.02493595 2.05487442
H -1.73225423 -0.61494902 0.94377345
H -1.50931919 -0.70210067 -1.45433270
