11

N -0.87603366 0.99017715 -1.3403522
C -0.2801467 0.23912002 -0.31161216
C 1.0157405 0.3014317 0.15382104
N 1.0782313 -0.5590312 1.2073988
N -0.07477995 -1.1758229 1.452595
C -0.9095334 -0.699646 0.54068744
H -1.5604718 0.45565754 -1.8582869
H -0.19592023 1.3640292 -1.987422
H 1.869522 0.8790392 -0.16913721
H 1.871549 -0.7592266 1.7916995
H -1.9381571 -1.0357281 0.5206087
