11

N 1.1217484 0.92226887 1.0393968
C -0.39141577 0.11399598 -0.42193493
C 0.23180182 1.3189092 0.03383688
N 1.0522915 -0.42929107 1.1557909
N -1.2937793 0.05559642 -1.4897991
C 0.08164916 -0.92480505 0.3433982
H -2.0503888 -0.60303056 -1.3550663
H 1.5875012 1.433428 0.09161293
H 1.5095242 -0.8859453 1.9265746
H -1.6638213 0.97367144 -1.6934967
H -0.18511109 -1.9747981 0.3696869
