9

O 0.7517243 0.24860656 -2.0786042
C 0.26401538 0.10966807 -0.8364551
N 0.9909011 -0.31524506 0.17542888
N 0.07891489 -0.28395733 1.1805675
C -1.1048363 0.14650398 0.72138834
N -1.0293767 0.40945387 -0.56684685
H 1.6839244 -0.0054849326 -2.053926
H 0.34535435 -0.56345075 2.1105433
H -1.9806213 0.2539056 1.3479042
