11

O 1.92778204 1.65235374 -0.51537660
C -1.13419115 0.03326262 -0.29295489
N -0.37127618 0.98288593 -0.67844881
C 1.14378366 0.78393363 -0.19184997
C 1.03730019 -0.40119249 0.48316008
C -0.34807015 -0.95908126 0.48661160
H -2.19644198 -0.00624456 -0.51732459
H -0.65641407 1.79009010 -1.22009363
H -0.46286731 -1.94098426 0.00093032
H 1.87680647 -0.87812744 0.96618455
H -0.81641184 -1.05689579 1.47916213
