11

N -0.69714576 0.4048496 1.9829135
C 0.01979338 -0.2625429 1.0142149
O 0.7353965 -1.2139225 1.247492
N -0.12344831 0.28351775 -0.25252065
C 0.5261934 -0.23135658 -1.3649635
N 0.4053518 0.35205212 -2.4865692
H -0.7271577 -0.0835478 2.865336
H -1.5523511 0.87274146 1.7225784
H -0.6175029 1.1529069 -0.39421985
H 1.0970442 -1.1321161 -1.1367989
H 0.9338266 -0.14258194 -3.1974623
