11

N -0.41696188 -1.282756 1.4710922
C -0.032958187 -0.16679505 0.7624776
O -0.13455698 -0.45914197 -0.5641917
N 0.1587512 0.19711506 -2.700899
C 0.24400929 0.48963916 -1.479272
N 0.38624224 0.94847125 1.1885314
H 0.39456332 0.9762056 2.2056437
H 0.5779377 1.4196314 -1.0168128
H -0.9585093 -1.969505 0.96527493
H 0.48366436 0.9810702 -3.2569017
H -0.70218176 -1.1339346 2.4250572
