10

N -0.82214797 0.8709209 1.3557991
C -0.1715888 0.17874542 0.3493243
C 0.348963 -1.0655926 0.21305892
N 0.9847896 -1.1455204 -1.0251967
C 0.81071585 0.009722117 -1.553245
O 0.115444474 0.8827057 -0.7750932
H -1.4999368 1.535745 1.0080851
H -1.2337838 0.26232687 2.0476441
H 0.33068654 -1.9016918 0.8961924
H 1.136858 0.37263864 -2.516569
