10

N -1.11501342 1.15499020 1.58357464
C -0.86133495 0.58692404 0.38263784
C 0.80476669 -0.73366296 -0.50286296
N 0.28886594 -0.27614585 0.51660086
C 1.42952977 -1.26509079 -1.51489277
O -1.49597948 0.75536657 -0.63017650
H -1.89235410 1.78885156 1.67160339
H -0.52709111 0.95272447 2.37437512
H 1.11672260 -2.22758361 -1.90109137
H 2.25188815 -0.73637380 -1.97976823
