11

C 0.28652945 -0.302604 0.018587556
C -0.56482524 0.35023075 -0.7928601
C 1.2821072 -1.3935028 -0.0043704384
C -0.91841555 1.135571 0.4040975
N -1.6250082 2.0513134 0.86979985
O 0.012796082 0.39251277 1.192043
H 2.2576416 -1.0168316 0.31730762
H -0.85578483 0.32323408 -1.8318858
H -2.2245734 2.4539764 0.15135735
H 1.367712 -1.8055848 -1.0114425
H 0.9818207 -2.1883154 0.687366
