11

N 1.4753321 0.37023377 1.3586167
C 0.43859294 0.20072764 0.43906462
N -0.27720642 1.2336233 0.02311111
N -1.2153633 0.6847677 -0.77892095
C -1.1003485 -0.6534802 -0.8901864
C -0.029011661 -1.0215007 -0.10621821
H 2.2864325 -0.19640292 1.1533029
H 1.7347662 1.3434602 1.4433874
H -1.8928405 1.2887616 -1.2119275
H -1.7777843 -1.2355944 -1.4979149
H 0.35743096 -2.014596 0.06768533
