11

O -1.01837623 -0.56580676 0.85927919
C -0.72978753 0.83676809 0.88338378
C 0.32034428 -0.14172893 0.62312292
C 0.80187245 -0.40424177 -0.78698879
O -0.24284703 -0.24021038 -1.71501295
H 1.59368725 0.30475639 -1.04854536
H -0.80721352 1.29746429 1.86649081
H -1.14689027 1.39755787 0.04937778
H 1.01733057 -0.39390715 1.42282232
H -1.01640118 -0.67134341 -1.32175562
H 1.22828150 -1.41930863 -0.83217413
