11

O -1.1263354 -0.39618096 0.8185337
C 0.78031933 -0.5340736 -0.7291291
C -0.6567551 0.95680463 0.81629366
C 0.26686954 -0.1590498 0.6437962
O -0.18526895 -0.26991037 -1.7177802
H -0.953426 1.5358442 -0.055902086
H 1.0707673 -1.5969883 -0.7202165
H -1.0278689 -0.5817946 -1.3549213
H 1.671 0.055619404 -0.9678989
H 0.88308084 -0.47002867 1.4878807
H -0.72238255 1.459758 1.7793441
