10

C -2.1027534 -1.2582612 1.2734529
C -0.052492946 -0.13864674 0.06746634
C 0.0342625 1.1743445 -0.4310522
C -1.1557614 -0.7671407 0.72540677
N 1.1051115 -0.76174957 -0.1643258
N 1.813603 0.16416965 -0.76865095
N 1.2388988 1.338325 -0.9598779
H -2.9400234 -1.7079934 1.7624071
H 2.7559898 -0.010764029 -1.0795443
H -0.69683456 1.9677161 -0.4252818
