9

O -0.13211901 2.0860524 -0.37681133
C 0.13618371 -1.3146373 0.113944836
N -0.41197097 -0.85237104 1.1961044
N -0.5075519 0.497361 0.9806073
C -0.025256677 0.8239243 -0.19958371
N 0.40782306 -0.30503148 -0.8079353
H 0.82605433 -0.3933189 -1.7174474
H -0.66026354 1.8106775 0.88479316
H 0.36710104 -2.3526564 -0.07367197
