11

N 1.479159 -1.2789545 0.09454948
C -0.5013083 -0.65621066 -0.7201692
C -0.9093902 1.193286 0.45999134
O 0.44032443 0.75113034 0.88186395
C 0.614466 -0.31404948 0.13211317
O -1.5549743 0.08875169 -0.06257403
H 0.5128755 -1.8295342 -0.5613817
H 2.4280236 -1.2080787 0.45303607
H -0.35226017 -0.29593128 -1.7504277
H -0.7371966 1.9897273 -0.27774838
H -1.419719 1.5598636 1.3507469
