10

N 0.22836213 -0.78682408 -0.52902391
C -1.04988152 -0.49311243 0.15826579
C 1.03692963 0.23245023 -0.29766727
C 0.40442898 1.20521254 0.50241743
C -0.89888669 0.83514918 0.83769175
H -1.86364039 -0.46807316 -0.57420135
H -1.26891191 -1.28472377 0.88316224
H 0.46333501 -1.59832038 -1.07630364
H 2.04280327 0.23737939 -0.70866322
H 0.90546107 2.12086258 0.80432216
