10

N -1.0490865 0.2638369 0.36343974
C -0.661029 -0.9682211 -0.09925422
C 0.66841877 -0.8857591 -0.439275
C 1.0939698 0.44420832 -0.1713364
C 0.011369425 1.1301521 0.32301846
H -1.9735645 0.49654138 0.68149436
H -1.3578376 -1.7921252 -0.14483581
H 1.2742463 -1.6881139 -0.835815
H 2.0861742 0.8445182 -0.32566333
H -0.09266132 2.1549625 0.64822716
