10

N -0.39429715 -0.9563089 -0.45262784
C 0.60681117 1.0165366 -0.5148041
C -0.54749906 -0.40715477 0.82100534
C 0.28353408 0.0077867405 -1.412109
C 0.071512096 0.80789506 0.7909481
H -1.0340003 -0.94927585 1.6190627
H 0.67290777 -1.2159634 -0.8537794
H 1.1909568 1.882808 -0.80166525
H -1.0094186 -1.6632463 -0.83439815
H 0.15949315 1.4769226 1.6383675
