13

N 0.43705136 -1.1752608 2.9299355
C -0.4181217 -0.7492615 -0.5041756
C 0.17468 -0.6344253 1.9336919
N 0.93673956 1.1522825 0.4321549
C -0.16654892 0.055114128 0.73927754
N -0.6506198 0.16707899 -1.6239545
H 1.8709122 0.99707913 0.8125801
H 0.8979327 1.2964596 -0.5790306
H -0.061281297 1.4229558 0.9340775
H -1.2443049 -1.4471058 -0.30310628
H 0.4651696 -1.3576332 -0.7736025
H -0.6876376 -0.3421473 -2.501482
H -1.5539712 0.61486363 -1.4963664
