13

N 0.91995630 -1.31678543 -2.70306778
C 0.40720445 -0.88561498 -1.76268156
C -0.27252875 -0.30895031 -0.59083962
N -0.72008864 -1.37967112 0.27701094
C 0.68495549 0.60440986 0.19051772
N -0.01185484 1.09916846 1.36613275
H -1.08975737 0.31710700 -0.99303041
H -1.50044616 -1.88264262 -0.13258081
H 1.06003508 1.39562898 -0.47349078
H 1.53350098 -0.00877197 0.51465849
H -0.65501223 1.84362776 1.10764611
H -0.99340385 -0.95910593 1.15780142
H 0.63743948 1.48160064 2.04192321
