9

O -1.1188571 0.3643948 -1.0497516
C 0.075622 -0.09128345 -0.5145274
C 0.48539305 0.7427724 0.70194095
O -0.2325938 1.624202 1.0953023
C -0.0009160976 -1.5051618 -0.064899
N -0.05043954 -2.5927691 0.3184451
H -1.4833835 0.9976816 -0.4074501
H 0.8799538 -0.027216358 -1.2628878
H 1.4452212 0.48738003 1.1838275
