10

O -1.3640064 0.9621122 1.569423
C 0.5484105 -1.1348547 -0.20201848
N -0.041259028 0.9889138 -0.50692433
C 0.69958645 -0.080837704 -1.0479277
C -0.60153025 0.5333624 0.630329
N -0.26816243 -0.733703 0.84166855
H 1.2521447 0.027741376 -1.9697874
H -1.0431011 -0.34974027 1.8382254
H -0.1463871 1.9155678 -0.8833111
H 0.9643046 -2.128562 -0.26967677
