11

N 0.5608111 -1.4103882 -1.3647937
C 0.17605354 -0.4398928 -0.45040125
C -1.0223852 0.104426086 -0.10639033
C -0.71208036 1.1299907 0.85643256
C 0.6294627 1.1182915 1.0127941
O 1.1903481 0.1565027 0.21098244
H 1.431195 -1.8583634 -1.1112759
H -0.16331886 -2.0929334 -1.5398756
H -1.9954919 -0.17331296 -0.48154423
H -1.4149544 1.7793177 1.3585893
H 1.3203601 1.6863621 1.6154824
