11

C 0.6396739 -1.2898773 1.0526377
C -0.9628775 0.2756009 0.3340743
O -0.464919 -0.6082256 1.1527913
C -0.30906737 0.50026983 -0.9750615
O 1.0269374 1.0070318 -0.90322435
H 0.99258137 1.7922617 -0.34440628
H -1.9230902 0.66009766 0.6455287
H 1.3428426 -1.0522363 0.2696965
H 0.798826 -1.9902763 1.8616847
H -0.19547251 -0.45284256 -1.5130006
H -0.9454346 1.1581964 -1.5807204
