11

C 0.17759402 0.9104319 -0.5603941
C 0.90915865 -0.24274844 -0.89812243
O -0.7569654 -1.140389 0.112935364
C -0.65248483 -0.34800267 1.1759614
O -0.107934415 1.0450537 0.7538989
H -1.6111692 -0.096504696 1.6460489
H 0.20106187 1.8226771 -1.1530682
H 1.012613 -0.510296 -1.9460846
H 0.080116495 -0.6842998 1.927295
H -0.71267694 0.086984836 -0.8700761
H 1.4606864 -0.8429069 -0.18839398
