11

C 1.78290301 -0.41018107 0.49132049
N 2.80325647 -0.38927001 -0.07500127
C 0.56349055 -0.34170420 1.18811198
C -0.84568124 0.04460835 -0.93830849
N -0.39826411 0.52053076 0.40254236
H 0.04825241 1.43220375 0.29761301
H 0.04756331 -0.09978207 -1.54817228
H 0.07958857 -1.29599824 1.38335759
H -1.51940839 0.77274409 -1.39984123
H -1.35326526 -0.91162924 -0.80139263
H -1.20843492 0.67847829 0.99977049
