11

C 0.30266505 0.79902554 -0.13598774
C 0.05683415 -0.22908847 -1.0382421
C -0.46513975 -1.2472501 1.0592127
O 0.41199574 0.5999145 1.1036683
C 0.45692137 2.1738155 -0.60262305
N 0.57514447 3.2590115 -0.98675597
H -0.51445156 -2.1152713 0.4125658
H 0.17428 -1.3788959 1.9229949
H -1.4164908 -0.76413697 1.2506864
H -0.31786948 -0.025124159 -2.036768
H 0.73611104 -1.0719998 -0.94875145
