12

N -0.27242887 -0.011946233 -2.050821
C -0.15919742 -0.037156437 -0.653058
C -1.0314947 -0.31099057 0.33552948
N -0.35464665 -0.1010344 1.5485145
C 0.935502 0.33393347 1.3308544
O 1.7747204 0.65833074 2.149902
N 1.0502839 0.31336418 -0.05412159
H 0.28808227 -0.72668403 -2.499141
H -1.2343899 -0.1296943 -2.3398862
H -2.0494268 -0.66498786 0.29661497
H -0.76198864 -0.08774099 2.46515
H 1.8149846 0.76460636 -0.52953774
