12

N -0.07001578 0.45006794 -0.90177083
C -0.48923334 -0.6865128 -0.4455512
C 0.08820547 -1.1343633 0.8817626
N -1.3653302 -1.5142264 -1.0772996
C 0.9086228 0.92153126 0.03681866
O 0.6896421 2.1969044 0.5292047
N 0.8697554 -0.115834534 1.1066986
H 1.9107267 0.9357321 -0.40824476
H -1.8167193 -2.2006233 -0.49866983
H 1.4569274 -0.03358726 1.925019
H -0.26321018 2.2925165 0.6719036
H -1.9193707 -1.1116046 -1.8198713
