11

C -0.85035187 1.9692894 0.22604726
C 0.7110832 -1.5731099 -0.0011853889
C 0.07942082 0.90579385 -0.09826833
N -0.7477404 1.8129696 -1.0078018
C -0.37703413 -0.525048 -0.0045679915
O -1.5579113 -0.7865449 0.061715268
H 1.420665 -1.3871713 0.8112872
H 1.2743043 -1.5228454 -0.9401747
H 0.27208456 -2.5653026 0.11073558
H 1.1534843 1.0895566 -0.10172647
H -1.3780043 2.5824127 0.94393927
