11

C -0.8804884 -0.80054826 -1.1909634
C -0.12712681 -0.06561178 -0.14077388
C -0.26233983 1.1336918 0.4689326
N 0.7604698 1.3054837 1.397043
C 1.4457275 0.22111411 1.2990125
O 0.9828013 -0.6654185 0.39423946
H -1.2574703 -1.7562579 -0.813273
H -1.7312866 -0.19712082 -1.5154477
H -0.24870361 -1.0053809 -2.0604875
H -1.0163082 1.8912863 0.31480855
H 2.3347251 -0.061237864 1.8469098
