11

C 1.3802458 0.007880776 0.023107614
N 0.24084912 -0.62489635 -0.62892777
C -0.99673784 -0.5014326 0.10954617
C -1.4298954 0.9011758 0.33860365
N -1.712297 2.01366 0.46984124
H 1.2469516 1.0842742 0.2097212
H 2.2652502 -0.13089843 -0.6039542
H 1.5660623 -0.48944604 0.9814
H 0.11867395 -0.24379103 -1.5597717
H -1.794436 -1.0275701 -0.42450595
H -0.88466674 -0.9889556 1.0849397
