11

C 2.4974282 -0.708982 -0.35112014
N 1.6707373 -0.06813912 0.17531377
C -1.1059248 -0.66564083 -0.43502292
C 0.54831624 0.6795416 0.70683956
N -0.6009575 0.6719007 -0.14071779
H -0.37774715 -1.3037595 -0.9539746
H 0.28688797 0.23770492 1.674886
H 0.87990445 1.7073077 0.8702064
H -0.4041113 1.1818174 -0.9937729
H -2.001771 -0.5750936 -1.054097
H -1.3927622 -1.1566573 0.5014598
