11

O 1.2546247 -0.65555495 -2.106442
C 0.6234646 -0.34763286 -1.1162878
N 1.1418438 0.031667475 0.09945837
C 0.12954746 0.33753678 1.0826874
C -1.1400056 0.09347512 0.30672765
C -0.8614982 -0.29276544 -0.9366326
H 2.132233 0.083281964 0.25809866
H 0.1919553 1.3753704 1.4337192
H 0.19528425 -0.31490818 1.9621975
H -2.1190686 0.23050384 0.7510679
H -1.5483806 -0.54097414 -1.7345943
