11

O -1.7279638 -0.81624657 -1.5809264
C 0.94654065 -0.43703878 0.69719964
N -0.60193276 0.8362433 -0.3980339
C 0.6431058 0.90538263 0.52041674
C -0.85260123 -0.5810735 -0.7677176
C 0.09324042 -1.299018 0.019028505
H 0.09697234 -2.3779247 0.07433112
H -0.76987016 1.149031 0.68931043
H 1.2581306 1.7881448 0.45512283
H -0.8469444 1.5701367 -1.0550417
H 1.7613225 -0.737637 1.3463106
