11

C -1.1425474 -0.3129598 0.70717376
N -0.059085846 0.66021615 0.64023674
C 1.1018327 0.18449864 -0.082851395
C 0.82959175 -0.1713752 -1.4982408
N 0.55377555 -0.42138407 -2.5923316
H -1.5143713 -0.6377721 -0.27674428
H -1.9731747 0.12412231 1.269236
H -0.79660547 -1.1970402 1.2544042
H -0.38585252 1.52155 0.21833985
H 1.8828148 0.95117325 -0.062174562
H 1.5036224 -0.7010291 0.4229521
