10

N 0.352633 0.05386157 -0.34488985
C -0.7195368 -0.2760513 0.51633835
O -0.8086048 -1.3325609 1.0879666
N -1.6627098 0.7215103 0.5862992
C 1.4495496 -0.7205439 -0.50868464
O 2.3232813 -0.27294043 -1.3690671
H 2.5012996 -1.3024933 -0.7824282
H -1.3901637 1.6815908 0.44586685
H -2.3589063 0.5615424 1.3002572
H 0.31315815 0.88608474 -0.93165845
