10

N -0.5877126 1.1038061 1.4598601
C -0.35394916 0.9555184 0.10554716
O 0.722031 -2.040822 -1.3503366
N 0.054199573 -0.36420304 -0.20938605
C 0.475169 -0.7214689 -1.4394625
O -0.51544803 1.8232073 -0.71041375
H 1.0310819 -2.3138175 -2.2215197
H -0.04061948 0.56632787 2.1149848
H -0.7529044 2.0624037 1.7315184
H -0.031847775 -1.0709518 0.51920867
