11

N -0.37748122 -0.3346904 -1.931406
C -0.016965121 -0.04616704 -0.71209794
C -1.0886483 0.0848043 0.22687647
O -0.46039924 0.020938382 1.5000441
C 0.908279 0.16829549 1.2655387
O 1.1683086 -0.202764 -0.11812592
H 1.2637885 1.2038833 1.3633977
H 0.3392853 -0.4728704 -2.6389952
H -1.3330439 -0.76128167 -1.0157743
H -1.8576336 0.8466864 0.13292396
H 1.4545102 -0.5068344 1.9276186
