10

O -1.1038296 -0.6228535 0.5201592
C -0.8800197 -0.07916552 -0.7779574
O 0.07112038 -0.82541424 2.4337466
C 1.0271924 0.24784353 0.47418898
C 0.51719797 0.46320727 -0.7319871
C 0.0049394583 -0.45078325 1.295125
H 0.9919719 0.94269985 -1.5798715
H 2.0023994 0.5023896 0.8664781
H -1.0008539 -0.8735381 -1.5229605
H -1.6301179 0.69561434 -0.9769212
