12

N -0.43317163 -1.6693573 2.324926
C -0.3471808 -0.77012855 1.605068
C -0.254826 0.36059815 0.66146123
C 1.1512809 0.48182994 -0.008035987
N 1.0074836 -0.0780642 -1.3493254
C -0.23789124 -0.24433592 -1.5371784
N -1.0978148 0.14852636 -0.51191753
H -0.53751254 1.2739006 1.1935651
H 1.4456714 1.5341024 -0.07719203
H 1.9264886 -0.04873924 0.55002373
H -0.663259 -0.6263696 -2.4607975
H -1.9592686 -0.3619625 -0.39059702
