12

N 1.01172054 -0.07560983 3.58050424
C -1.28986523 0.01102954 -0.54734385
C 0.58755014 0.07760317 1.05937759
C 0.82974515 -0.01110588 2.43172145
N -0.72452277 -0.18571591 -1.75094847
C 0.51100038 -0.07978098 -2.09051848
N -0.69780308 0.08613647 0.64344350
H -1.35612418 0.11842886 1.41515429
H 1.40215268 0.08735261 0.35243394
H 1.32341300 0.26955358 -1.45414584
H 0.77518931 -0.32631959 -3.11789473
H -2.37245607 0.02842810 -0.52178346
