12

N -0.37570685 -0.22145595 0.84744895
C 1.015381 1.3195357 1.956961
C -0.035100985 -0.35340536 -2.124059
C 0.52275234 0.78412753 0.7651093
N 1.4073613 1.7598959 2.961656
C -0.92936766 -1.0479847 -0.038250268
N -0.6656351 -1.1646698 -1.3511915
H -1.6188418 -1.7710965 0.3797135
H 0.34082127 0.6318374 -1.850201
H -0.66055596 -0.41127303 1.8028533
H 0.8873192 1.1289636 -0.18967904
H 0.11157324 -0.65447485 -3.1603615
