10

N 0.74542495 1.66060283 0.86302914
C 0.62279553 1.04054221 -0.34444798
N 0.16257910 0.96189139 1.77280010
N -0.57397981 -1.08664104 -1.03864203
N -0.35812585 -0.12580973 1.16029396
C -0.09552764 -0.11808580 -0.16682700
H -0.43555645 -2.03721074 -0.72300166
H 1.04776103 1.45334968 -1.24668199
H -0.20734176 -0.97071904 -1.97264933
H -0.90802916 -0.77791935 1.69612686
