11

C -0.4405932 0.7022668 -0.36287937
C -0.97122985 -0.65005994 -0.101522535
N -0.5678467 1.9543613 -0.34892628
C 0.52464443 -0.40129897 -0.3925257
N 1.4969192 -0.6271712 0.64831716
H -1.5467405 -1.1698626 -0.8641343
H 1.1241251 -0.3161116 1.5407151
H 0.8597414 -0.7547998 -1.366087
H -1.5388603 2.211395 -0.1456975
H -1.2562075 -0.8963819 0.9207811
H 2.316048 -0.052337274 0.47195932
