10

N 0.2901487 0.8842802 -1.7604108
C 0.02128474 -1.255517 0.9488774
C 0.1832626 0.11830597 -0.73225784
C -0.41504666 0.100085415 1.3867908
C -0.3209772 0.96747154 0.36126283
O 0.4010949 -1.1430798 -0.47237492
O 0.11230574 -2.3074403 1.4861808
H 0.61438346 0.6186443 -2.6823096
H -0.15149099 1.7783049 -0.94843197
H -0.7349653 0.23894465 2.4126735
