10

N 0.95143110 1.15058584 1.26290324
C -0.22034578 -0.65762198 -1.42892833
C 0.28568502 0.37850238 0.42997447
C -1.15720329 -1.00544354 -0.34309070
C -0.90810530 -0.39164486 0.84089953
O 0.71752592 0.29310727 -0.80576301
O -0.07140608 -0.94276641 -2.56925886
H -1.95963392 -1.70143076 -0.56764483
H 1.76835356 1.66855613 0.97546596
H 0.59369909 1.20815603 2.20544264
