13

C -0.21040261 -2.112947 -0.9657937
C 0.68261415 0.85478044 0.8450064
O 0.37161177 -1.3194448 0.061513003
C -0.0072737886 -0.03251057 0.1257687
O -1.1164685 0.29011506 -0.5603852
N 0.17692676 2.193777 0.8681843
H -1.2196909 1.2439592 -0.40955606
H -0.0017552722 -1.6971735 -1.9579092
H -1.2914989 -2.2131298 -0.8298595
H 1.5785124 0.5405715 1.3712721
H -0.09131256 2.4815035 1.8061093
H 0.267571 -3.0877428 -0.86893934
H 0.8611664 2.8582416 0.5145893
