13

C 0.36849383 -0.60585046 0.24902537
C -0.6237087 -0.052267753 -0.6195511
O -1.7748027 -0.8216186 -0.84343284
C 0.5526998 1.9114994 0.056388516
O 1.2883286 0.15943111 0.6546102
N 0.2882219 -1.8921402 0.6530997
H -0.30006027 -2.5182784 0.12989536
H -0.4631932 2.288846 0.04165606
H 1.0790706 2.007632 -0.8860995
H -0.20455949 0.28080556 -1.5667638
H 1.1297779 2.2440252 0.9125503
H -2.3271213 -0.7411579 -0.056376297
H 0.9868529 -2.2609255 1.2749983
