13

C 0.20186839 -1.5193594 -0.5987139
C -0.20715675 -0.054803796 -0.58263195
O -1.5717198 0.13216795 -0.22589555
C 0.7363437 0.7695181 0.30165377
O 1.9421078 0.6212631 0.25926754
N 0.09702375 1.6540242 1.1084255
H 1.2508562 -1.614464 -0.8854189
H -0.42392242 -2.0737536 -1.3048713
H 0.083963275 -1.9663188 0.39735946
H -0.11648878 0.3580521 -1.592449
H -1.7569681 -0.44055426 0.52875036
H -0.8874699 1.8129793 0.96997064
H 0.6515628 2.3212488 1.6245534
