11

N 0.5083527 -0.9603281 -0.36567983
C -0.11915211 1.1295259 0.33475423
C 1.085933 0.33766243 -0.10780123
C -0.8452867 -1.0116177 -0.12480424
C -1.2100079 0.36627787 0.32490504
O -1.566366 -1.9786949 -0.25712714
H -2.223488 0.63780785 0.58754665
H 1.5457408 0.7723884 -1.0046418
H -0.050602518 2.1754944 0.61128944
H 1.021505 -1.7693747 -0.67424846
H 1.8533717 0.3008589 0.6758073
