9

O -1.2524518 0.034737088 -1.614796
C -0.508994 -0.13277945 -0.51460737
N -0.6757166 -1.1503396 0.28613198
O 0.25620028 -0.98164576 1.2957541
C 0.950502 0.14364393 1.0550992
C 0.52821064 0.7458798 -0.07862574
H -1.8813684 -0.70136666 -1.6694808
H 1.712732 0.38445812 1.78377
H 0.87088567 1.6574125 -0.5432453
