9

O -1.1015983 1.5780967 -1.0273921
C 0.48833352 0.090004146 0.45669144
N 1.8052729 -1.8274105 1.6624769
O -0.46787792 -0.5023659 -0.42934224
C 1.2133359 -0.997416 1.1189334
C -1.2028295 0.38602686 -1.116375
H -0.017588496 0.7097624 1.2035439
H 1.185758 0.7212309 -0.102801636
H -1.9028059 -0.15792869 -1.7657346
