9

O -0.673867 0.2324205 -1.395222
C -1.0398986 0.39591408 0.23581542
N -0.20313747 1.4928753 0.3200855
O -0.30719966 -0.8372702 0.69710714
C 0.31925783 0.63813984 -0.6046196
C 0.9896769 -0.5552868 0.062174924
H -2.091304 0.32390875 0.47828713
H 1.2613096 -1.371393 -0.605284
H 1.7451621 -0.31930852 0.81165534
