9

N -1.1066037 1.3442504 -0.74141806
C 0.3571449 -0.15743153 0.2969343
C -0.7000941 0.10361651 -0.6460702
N 0.9411871 -1.2865887 0.60549074
N -1.4561688 2.4048126 -0.82625395
O 0.9052017 0.7603488 1.0168575
H 1.5110726 -0.3448028 1.3498362
H -1.184615 -0.62732995 -1.2761964
H 0.7328753 -2.1968753 0.22081977
