9

N -0.65939925 -0.46153318 -1.62976782
C -0.04739278 -0.00278855 -0.61700902
C -0.29758200 -0.30563977 0.78499145
N 0.42608918 0.25326452 1.71613887
N 1.04617447 0.73082885 2.52563744
O 0.96882078 0.87500038 -0.78047450
H -1.40830761 -1.10015165 -1.37211025
H -1.06708197 -0.98664262 1.11216169
H 1.03867930 0.99766201 -1.73956791
