10

C -0.41181051 1.39083174 1.20490935
C -0.64909558 0.23248202 0.33901559
N -0.20832564 2.30490100 1.88335188
C 0.41128362 -1.39585115 -1.19754878
N 0.20224856 -2.31622422 -1.86514514
C 0.65196871 -0.22872648 -0.34456770
H 1.40239135 -0.48878081 0.40732659
H 1.06519937 0.58045280 -0.95433458
H -1.39621089 0.50093529 -0.41382579
H -1.06764910 -0.58002027 0.94081899
