11

O 0.18062288 2.18162316 0.26215447
C -0.48572343 -1.09258576 -0.28347728
C 0.72396536 -0.25818554 -0.51398111
N 0.74377725 -1.36901310 0.44985640
C -0.12232194 0.89533951 0.01075074
C -1.20974642 0.14264716 0.24158612
H 0.69072775 -1.03535511 1.40741013
H -0.87420359 -1.85312962 -0.95187059
H 1.41490015 -0.27924242 -1.35245643
H 1.06955143 2.37677349 -0.06163466
H -2.13154969 0.29112822 0.79166230
