11

O -1.2765315 -0.17636241 1.9328864
N -1.1670905 -0.7653049 0.6723971
C -0.23840421 -0.23042648 0.007323622
C 0.29586878 -0.4670204 -1.377952
O 1.2580471 0.5862915 -1.1730334
C 0.79154235 0.85764724 0.16406094
H -2.0046544 -0.66984737 2.329009
H -0.39148647 -0.24602063 -2.2024949
H 0.7727146 -1.4384191 -1.5479575
H 1.5624827 0.6754138 0.9214466
H 0.39751136 1.8740491 0.27431414
