12

O -1.2583109 -0.8775845 -0.99485373
C 1.256925 0.32723314 -0.2842044
C -1.305095 0.10764534 0.00092140114
C 0.059417225 0.22243845 0.6926151
N 0.80269647 -0.923385 0.847962
H -2.055916 -0.1257408 0.77401435
H 1.9306172 1.1223639 0.02277883
H 0.09125791 0.98518 1.4871502
H -0.6701056 -1.5570283 -0.6261106
H 1.8505145 -0.6386802 -0.14660871
H 0.8934895 0.30101046 -1.307633
H -1.5954901 1.0565473 -0.46603107
