11

N -0.7295066 -0.7561103 1.5605222
C -0.19368553 -0.13114789 0.42097834
C -0.13112608 -0.6123427 -0.86953336
N 0.4003712 0.39260322 -1.6182315
N 0.69202995 1.4815893 -0.908616
C 0.33400795 1.1789533 0.3312954
H -0.21916308 -0.52791613 2.4024851
H -0.7750569 -1.7613263 1.4639504
H -0.41833863 -1.5603086 -1.2997333
H 0.5834741 0.39047924 -2.6071703
H 0.4569936 1.9055266 1.1240529
