11

N -0.49244821 -0.21376960 1.66162815
C -0.51739831 -0.84874761 0.53895488
C 0.11194120 -0.15683321 -0.57483138
N 0.22769916 -0.75696519 -1.84790141
N 0.23962223 0.99629943 1.27158927
C 0.62226671 1.04706130 -0.18447032
H 1.07588386 1.04966227 1.85484503
H -0.99022611 -1.82526170 0.49421681
H -0.67161534 -0.96515249 -2.26638870
H 0.73325333 -0.12771709 -2.46019421
H -0.33897854 1.80142363 1.51255176
