10

N 0.70609871 -0.41239652 -1.60466588
C 0.29674966 0.39132688 -0.57713107
C -0.27163558 -0.34091791 0.60826075
O 0.33597766 1.60528592 -0.61517611
C -1.00492064 0.42022906 1.59377440
N 0.16114908 0.16134025 1.97025685
H 1.18953193 0.03908182 -2.36760250
H -1.89203834 0.94197620 1.92583310
H 0.89616557 -1.38865746 -1.44889300
H -0.41707807 -1.41726856 0.51534337
