10

N 0.4766777 -0.6295641 -1.6149393
C -0.28222623 0.95727015 0.08941053
C 0.09832491 -0.3010983 -0.35134456
O 0.12362991 -1.1970912 0.5785138
C -0.26950282 0.16120152 1.7478038
N -1.1226788 0.9507818 1.3884217
H 0.6720802 -1.608248 -1.7698978
H -0.07054284 1.9431158 -0.2951893
H 0.060512 -0.13292679 -2.3832216
H 0.31372598 -0.1434409 2.6104429
