12

N -0.27189553 -0.014620963 -2.0503547
C -0.1587274 -0.036682 -0.6537654
C -1.0305972 -0.3128763 0.3335967
N -0.35513029 -0.09974709 1.5483891
C 0.9347341 0.3346723 1.331586
O 1.7715249 0.65995765 2.1517673
N 1.0514652 0.31403157 -0.05466044
H 0.29198706 -0.72916746 -2.495857
H -1.2351283 -0.12448769 -2.3396459
H -2.0466146 -0.6706828 0.29228532
H -0.76676154 -0.08752057 2.4640682
H 1.8151437 0.7671233 -0.5274095
