11

N -0.5658463 0.62912744 -0.77306265
C 0.2707637 0.49742776 0.193596
N 0.999264 1.5139984 0.75723064
N -0.5231926 -1.620245 -0.00020360094
C 0.29600212 -0.90923756 0.67165744
C -1.1282806 -0.69271344 -0.94999456
H 0.9064835 -1.3112464 1.4765726
H 1.0238209 2.3640006 0.21335724
H 1.8877021 1.2659792 1.166659
H -2.2124248 -0.6790167 -0.78844285
H -0.954292 -1.0580746 -1.9673696
