11

O 2.26061468 -0.74002793 -0.02922343
C -1.24550669 -1.03928175 -0.67641315
C -0.54734978 0.95520025 -0.43701144
C 1.60586589 0.10556992 0.51289326
N -1.32820537 0.28569589 -1.20100674
C 0.08038978 0.06827777 0.61274091
N -0.48428125 -1.23058938 0.33269759
H -0.37317430 2.02000439 -0.56536625
H 2.05425771 1.00905109 0.97335802
H -0.19458050 0.39180077 1.62446617
H -1.82802983 -1.82570132 -1.14713490
