11

C -1.06390356 0.47664158 0.64377716
C 0.25220903 0.03890736 0.05435235
C 1.79184563 -1.08118127 1.80432750
O 0.88256313 0.93179454 -0.82706305
C 0.42160426 -0.30605995 -1.35964396
N 1.11893389 -0.57576260 0.98368667
H -1.68272875 0.92638978 -0.13635643
H -0.89600255 1.21472291 1.43264344
H -0.43866791 -0.23929199 -2.02558809
H 1.20429064 -1.00606422 -1.64327721
H -1.59014392 -0.38009636 1.07314196
