11

C -0.953349 -0.14967932 -0.9052875
C 0.26093456 0.34401628 1.3600364
C 0.2844176 0.10281769 -0.08814316
O 0.5237882 1.3732051 0.41130492
C 1.6371875 -0.33608833 -1.0905657
N 1.6194235 -1.1440121 -0.20510344
H -0.84554195 0.2867894 -1.9002278
H 1.1083015 0.03870398 1.9662809
H -1.1126393 -1.225455 -1.0060914
H -1.8179952 0.2958447 -0.4042939
H -0.7045272 0.41385785 1.8620907
