11

C 0.09470452 0.22380355 0.09497574
C 1.2990378 -0.19090328 -0.62937385
C 0.32976404 1.0553008 2.532362
O 0.65746117 1.0541435 -0.88753504
C -1.2734499 -0.34023038 -0.18998815
N 0.25737837 0.689204 1.4177127
H 1.2092053 -0.9377334 -1.4181594
H -2.035571 0.43030858 -0.046092533
H 2.2651029 -0.118075565 -0.1349387
H -1.4874634 -1.1736084 0.48452073
H -1.3161693 -0.6922095 -1.2234833
