10

N 1.3815014 -0.013497282 0.73660016
C -0.7964063 -0.4710248 0.3137904
N -1.9137573 -1.0000228 0.5767314
O 0.19116108 -0.52626836 1.2822052
C -0.21732675 0.23928256 -0.8274691
C 1.0442961 0.5407715 -0.4912251
H -0.7271244 0.4467838 -1.7571478
H 1.7751147 0.61846226 1.4280112
H 1.8080821 1.0680013 -1.047538
H -2.5455403 -0.90248823 -0.21395841
