10

N -0.3226171 -1.0010747 -1.5072056
C -0.077507086 -0.4405613 -0.26889226
N -0.034521963 -1.1741686 0.8154986
O 0.3148302 -0.30538553 1.839153
C 0.4531934 0.92221874 1.3351874
C 0.22361742 0.93033934 0.0029287008
H -0.88419855 -0.42953104 -2.1195104
H -0.67084384 -1.9493098 -1.4498883
H 0.72474635 1.69217 2.0437815
H 0.27330124 1.7553027 -0.6910528
