11

O -2.0121872 0.9914961 1.3772182
C -1.0798937 0.6119702 0.7244966
N -0.97613144 -0.550316 -0.011260719
C 0.40719196 -0.80766076 -0.35691467
C 0.9426518 0.62986505 -0.32546815
O 0.07989308 1.3128092 0.5878317
H -1.6086302 -1.2960812 0.23423976
H 0.9075509 -1.4433321 0.38443783
H 0.51151353 -1.2638304 -1.3436061
H 0.860053 1.1090423 -1.3062166
H 1.9679886 0.7060372 0.035241876
