11

N 0.2693408 0.0087042 -1.9071333
C -0.3821929 1.2223747 0.19790246
C 0.7879849 -0.8903248 0.52423716
O 0.5510617 0.4496045 0.9728026
C -0.5407973 0.36586875 -1.0470257
C -0.32962075 -1.0776634 -0.48824322
N -1.5613084 -1.0603693 -0.40870225
H 0.074878946 2.1807606 -0.04871485
H -1.3133317 1.3541564 0.75304776
H 0.658574 -1.5736588 1.3640552
H 1.7854106 -0.97945267 0.087774366
