11

N -2.0031679 -0.51852345 -1.9163456
C -1.5760533 0.026618691 -0.9918017
C -0.999407 0.694441 0.19446275
O -0.31370795 -0.20716622 1.0276049
C 0.8045519 -0.82172555 0.43679866
C 1.855741 0.15655504 0.07825643
N 2.6532538 0.9450803 -0.19690986
H -1.803917 1.1188558 0.7985139
H -0.34431383 1.5090234 -0.14430006
H 1.1985648 -1.517649 1.1794384
H 0.5284552 -1.3855098 -0.46571752
