11

N -0.89416353 -0.62627750 -1.36734099
C -1.20408145 0.20700373 -0.31539803
C -0.02417326 0.44193822 -1.18829215
O 0.70156611 -0.36602633 0.85394852
C -0.72396745 -0.32440080 1.04343103
C 1.24470328 0.05053227 -0.40634058
N -0.72816781 1.47464119 -0.60363023
H -0.95901547 0.35753572 1.86308383
H 1.90708500 0.90430727 -0.25362175
H -1.09010717 -1.33270604 1.24385632
H 1.77032147 -0.78654752 -0.86969568
