12

C 0.13622259 0.256269 0.74108785
C -0.53762406 1.8735092 -0.80260974
C 0.42321134 -1.9836974 0.2577832
O -0.14526165 1.5474564 0.5288039
N 0.06984976 -0.6342934 -0.14770034
H 0.69808185 -2.0783165 1.3192948
H -0.42310235 -2.648077 0.05592828
H 1.2627342 -2.3298955 -0.35231116
H 0.4266182 0.10336286 1.7868524
H -0.73063457 2.9470804 -0.79386884
H 0.25974438 1.625886 -1.5101722
H -1.4398396 1.3207161 -1.0830882
