17

C -2.4832368 -0.9261121 0.59642065
N -1.3260528 -0.42298225 -0.11740762
C -0.26522708 0.070940614 0.6252694
O -0.34641415 0.21899216 1.8373535
N 0.8554073 0.42337787 -0.0936648
C 2.0682383 0.760603 0.6248458
C 0.93471426 0.34789222 -1.5386108
H -2.262813 -1.8315355 1.1780617
H -2.8347993 -0.16190991 1.2942528
H -3.2768443 -1.1417443 -0.12054358
H -1.0900333 -0.92836016 -0.95810735
H 2.8557768 0.012805982 0.45843422
H 1.8332454 0.80029225 1.6881138
H 2.4489448 1.7370503 0.3008569
H -0.019534739 0.6404711 -1.9887129
H 1.6958398 1.0527383 -1.8862393
H 1.2127889 -0.6525195 -1.9003228
