11

N -0.76377766 -0.62093546 -1.24754383
C -1.05754444 0.61480691 -0.55421655
C 0.14639715 0.61897945 0.04435620
N 0.94364451 1.32639123 0.91662881
C 0.06669274 -1.78624089 0.04332537
N 0.57160531 -0.60389727 -0.58806026
N -1.09832966 -1.82645716 -0.49194130
H 0.58895995 -2.46582747 0.70571675
H -1.95848676 1.20260413 -0.63299919
H 1.92780142 1.27172523 0.70481994
H 0.63303754 2.26885114 1.09991380
