11

O 0.64211548 1.18977748 0.52778609
C -0.49821225 0.51595779 0.00509869
C 0.57469853 0.95564676 -0.88171649
C -0.60316692 -0.92939366 0.44041734
O 0.66421162 -1.53749505 0.50594652
H 0.44374877 1.85447852 -1.48369698
H -1.41998666 1.09698778 0.04591200
H -1.12084453 -0.97025253 1.41191800
H 1.23561046 -0.90484053 0.96434357
H -1.20313867 -1.49152749 -0.28292965
H 1.28496455 0.22066085 -1.25307888
