11

O -1.1202862 1.251657 -0.48808795
C -0.61368406 0.73123676 0.7178682
C 0.46308655 -0.29850602 0.45524806
C 0.42603832 -1.1365292 -0.74016
O 1.2838502 0.0047143735 -0.6697287
H -0.3473506 1.4291117 -1.0430171
H -0.1961207 1.5246633 1.3588626
H -1.4486958 0.2713617 1.256109
H 1.013033 -0.6513319 1.3283495
H -0.40652078 -1.0323603 -1.4321294
H 0.94665045 -2.0940175 -0.743314
