10

O 0.16942094 1.6967907 -0.89951617
C -0.28771806 -0.45671698 1.2574726
C 0.41627607 -0.51829755 -0.06153329
C 0.9140177 0.7958416 -0.58706075
N -1.0012587 -0.69143647 -0.31955686
H 1.0393595 -1.3783724 -0.29721233
H -1.3227929 -1.1644249 0.6584862
H -0.52413833 0.60146767 1.4567803
H -1.4165545 0.2076744 -0.5643475
H 2.0133882 0.90747404 -0.64351237
