10

O -0.17010286 1.2687377 1.42158
C -0.5771499 0.14685862 1.2030649
C -0.48945728 -0.1749717 -1.3638005
C -0.12760788 -0.6512908 0.029742364
N 0.8899379 0.08932533 -0.7148292
H -1.0054163 0.79242635 -1.2498789
H 1.6763587 -0.41625702 -1.098729
H 0.05073272 -1.7111263 0.20079036
H 1.1132797 0.9737638 -0.25731188
H -1.3605747 -0.31746596 1.829372
