10

N 0.11368418 1.3069333 0.39427426
C 0.6202188 -0.8755981 -1.3119622
O 0.14438339 -1.003744 -0.07054905
N -1.081402 -0.16120437 1.7112325
C -0.33434156 0.07502122 0.7176616
O 0.7141861 0.13697247 -1.9565601
H 0.4291329 1.4842772 -0.55006003
H -0.30159461 2.0667076 0.9095726
H -1.2209576 -1.1603256 1.8324555
H 0.91669047 -1.8690397 -1.6760648
