10

N 0.79538864 -0.50412644 0.15390138
C 1.38749449 -0.21123622 -1.02461360
O -1.07060188 0.79164400 -0.48353632
N -1.04740196 -0.23872815 1.49385704
C -0.40589000 0.02050728 0.34613343
O 0.93180454 0.49357897 -1.94055610
H -0.57527620 -0.77435329 2.20071191
H 2.38166323 -0.66447991 -1.15134898
H -1.93502535 0.19340285 1.68235992
H -0.46215543 0.89379085 -1.27690824
