10

N 0.6051547 -0.8094357 1.5054919
C 0.012534116 0.16836865 0.7427147
O -0.40304914 1.215507 1.1883304
N -0.10310045 -0.17695427 -0.60497975
C -0.63832325 0.6749164 -1.5598629
O -0.7672982 0.35024542 -2.7148838
H 0.8307266 -0.51675117 2.4447548
H 1.251122 -1.4544873 1.0785655
H 0.13343897 -1.1034465 -0.93204826
H -0.9212052 1.6520375 -1.1480826
