10

N -0.06901568 0.6609538 -0.7596529
C -0.05215433 -0.43581176 -0.051644504
O 0.07645 -0.13600816 1.2007364
N -0.14648195 -1.7249602 -0.43150106
C 0.10288516 1.4801577 0.8426319
O -0.7790893 2.170237 1.239991
H -0.05466395 -1.9739101 -1.4010785
H -0.27553374 0.7107901 -1.7498721
H 0.016592043 -2.43184 0.26808104
H 1.1810118 1.6803917 0.84230864
