10

N 0.508203 0.006906039 -0.14766961
C 1.42837 0.8051033 0.34044105
O 2.515901 0.56677353 -0.26647168
N -1.5631322 -0.9597245 -0.35761282
C -0.8273213 -0.020856364 0.2961094
O -1.2532719 0.70384985 1.1713117
H 1.6447787 -0.2686365 -0.800944
H 1.3035177 1.5474769 1.1254262
H -1.202776 -1.418038 -1.1778682
H -2.5542688 -0.96285427 -0.18272194
