9

O 0.7553575 0.24661161 -2.078302
C 0.26593548 0.109820284 -0.83717275
N 0.9902696 -0.31199333 0.17698438
N 0.07772447 -0.2807387 1.1822169
C -1.1058055 0.14758366 0.7212201
N -1.0290893 0.40871754 -0.5678138
H 1.6857643 -0.012944628 -2.052983
H 0.3442032 -0.55973697 2.1117663
H -1.9843597 0.25268045 1.3440838
