9

O 0.51806986 -0.55432993 2.2363036
C -0.046255328 -0.4122011 1.0351406
N -0.8537061 -1.1469249 0.4069623
N -0.5427141 0.046293426 -1.713198
C 0.15717492 0.818622 -0.959963
N 0.15583941 0.7576 0.3821131
H 0.17965397 -1.3636916 2.6450882
H -0.34160307 0.21053353 -2.6968381
H 0.7735405 1.6440985 -1.3356086
