9

O -2.075968 -0.14027674 0.6888879
C 1.1754678 0.12777744 0.23655039
N 0.22898506 -0.93757266 0.19953221
N -0.67700803 -0.9404473 -1.1667271
C -1.0823485 -0.5829457 -0.04543183
N 1.4264948 0.8807788 -0.74239373
H 1.6776792 0.13063435 1.2106643
H 2.1908123 1.5145296 -0.5125685
H -2.8641143 -0.052477706 0.13148643
