9

N -0.84674776 0.16529016 0.34643036
C 1.3856282 0.31666124 0.07900591
C -0.5632498 -0.46876138 -0.79938287
N 0.73933524 -0.35782152 -1.0461107
C 0.332741 0.600762 0.92444146
H -1.7804015 0.36443034 0.67644835
H -1.308296 -0.9282381 -1.4358737
H 0.31203282 1.1022457 1.8824078
H 1.7289577 -0.79456854 -0.6273665
