13

C 0.58499825 -1.5841327 -1.166503
N 0.229077 -0.64340883 -0.12740053
C -0.055038147 0.66098356 -0.38109112
O -0.08181777 1.1701393 -1.4841573
C -0.33648565 1.4754533 0.87842476
O -0.5647721 0.694673 2.0390377
H -0.10993871 -2.4289827 -1.1831307
H 0.5344632 -1.0563782 -2.1201913
H 1.6027927 -1.9608595 -1.0220587
H 0.26947173 -0.9082782 0.8464803
H -1.165626 2.1579142 0.65340096
H 0.54946536 2.0865932 1.0821104
H -1.4565899 0.33628383 1.9850783
