10

O -1.685591 -0.5945665 -1.527944
C -0.8042925 -0.265994 -0.77964085
C -0.3778993 -0.617827 0.66060704
C 0.7706487 0.39920884 0.44445556
N 0.24405205 0.6084992 -0.8998882
H -1.1116443 -0.34729806 1.4219954
H -0.06775882 -1.6564654 0.7918744
H 0.7278164 1.2876961 1.0816951
H 1.7786087 -0.025498047 0.46685266
H 0.5260598 1.2122449 -1.6600075
