10

O 1.8145895 -0.19565539 1.2881559
C 0.29941732 -0.094091736 -0.9438547
C -1.0500187 0.13867365 -0.1961694
C 0.84384984 -0.07075894 0.4710032
N -0.28706908 0.14420298 1.0811344
H 0.6551315 -0.0007825507 2.0202785
H 0.4011187 -1.0514209 -1.4588603
H -1.7642981 -0.6862152 -0.26938236
H 0.6327719 0.7254896 -1.5837635
H -1.5454934 1.0905585 -0.40854207
