11

C -0.7722228 0.88045335 1.5451436
N 0.5835316 0.5213763 1.175045
C 0.8360121 -0.05315339 0.09541066
O -0.14468779 -0.3895023 -0.8404622
C 0.25072193 -1.0282767 -1.9661293
O 1.3768786 -1.3427311 -2.235559
H -0.79200953 1.9544196 1.7516053
H -1.0131265 0.365038 2.4799252
H -1.5361377 0.64257747 0.7951586
H 1.8414464 -0.33609018 -0.20346005
H -0.6304066 -1.214111 -2.5966783
