11

C 0.826627 1.1032853 -1.1540356
N 0.18241861 -0.6053975 0.40835175
C -0.32370654 0.42473733 -0.45819113
O -1.7845999 -0.9044358 1.4989138
C -0.612493 -1.1793087 1.3453261
O 1.975823 0.7678288 -0.9994847
H 1.1744817 -0.79855084 0.3507942
H -1.0099341 0.02286149 -1.2183373
H -0.9022369 1.1676208 0.10783292
H -0.07938746 -1.9317036 1.9531858
H 0.55300725 1.9330624 -1.8343556
