11

C -0.50377225 -0.18598657 1.81313023
N 0.22064556 -0.26427441 0.66933421
C -0.36021721 0.08968215 -0.59776886
O -1.67112271 0.14359556 1.85371854
C 0.73054555 0.23042091 -1.62651729
O 1.89459456 0.02823328 -1.37917432
H 0.39749257 0.52380405 -2.64102956
H 0.08211905 -0.46115617 2.70800793
H -0.92225280 1.03085179 -0.52515920
H 1.21198521 -0.46933810 0.67153612
H -1.08001782 -0.66583243 -0.94607829
