9

O 0.7547001 0.24834597 -2.0786898
C 0.26491585 0.1096935 -0.8372987
N 0.98991317 -0.31452128 0.17894639
N 0.0772048 -0.28330147 1.1816356
C -1.1062081 0.14549844 0.7195239
N -1.0286509 0.40774962 -0.5698449
H 1.6871018 -0.007069771 -2.0511906
H 0.34455815 -0.55808115 2.113083
H -1.9835349 0.2516861 1.3438351
