10

O 0.6564481 -0.82357943 0.9002549
C -0.28041753 1.2549025 0.30189368
C -0.2809433 -0.70819366 -0.13493161
O -1.2854801 0.20177324 0.19206294
C 0.80692923 0.25787076 -0.059909213
O -0.6686981 -1.7868973 -0.83224046
H -0.25027463 1.6734209 1.3102598
H -0.45326978 2.0238132 -0.45577663
H 1.7690516 0.3895303 -0.5376816
H -0.013345615 -2.4826405 -0.6839318
