10

O 0.55754822 -1.19103975 0.43615409
C -0.58560561 -0.50569484 0.00356966
C 0.72211535 -0.04592042 -0.44459195
O -0.84454580 0.60336331 0.80793237
C 0.45044647 1.16360694 0.43320995
O -1.66079055 -1.17586067 -0.43807507
H 1.09504700 1.29521075 1.30501215
H 1.32987193 -0.16456597 -1.33219283
H -1.37773557 -2.07583481 -0.65130584
H 0.31364854 2.09673534 -0.11971282
