9

O -1.5401254 -0.5852876 -0.7259166
C -0.4421527 0.024321776 -0.17370814
N 0.38681844 -0.9361035 0.5165432
N -0.61311376 1.359874 0.4482963
N 1.5035623 -0.49204695 0.82902294
C -0.0037096555 1.2925464 -0.6637994
H 1.9814296 -1.2490823 1.3389899
H 0.4617373 1.9478507 -1.384394
H -1.7344465 -1.3620723 -0.18503405
