10

C 0.5951302 1.3862289 -0.581498
O -0.40359008 0.38566065 -0.387014
C -0.028316764 -0.6268098 0.43077752
O 1.0515231 -0.71830255 0.9608942
N -1.0626012 -1.5039841 0.58143574
H 0.85187143 1.8682966 0.36688888
H 0.14892635 2.1112645 -1.2639368
H 1.4985069 0.95525014 -1.0202957
H -1.8250182 -1.463423 -0.07411989
H -0.8264317 -2.3941815 0.9868683
