10

C -0.10869802 -0.48382834 -0.10715095
O -0.81282616 -1.6376412 -0.17487726
C -0.48568475 0.5836995 0.6011244
O 0.21588467 1.7790482 0.4514492
N 1.0705624 -0.55582297 -0.83716774
H -1.6701362 -1.4979442 0.24616463
H -1.3640916 0.5831315 1.2419958
H 0.73830557 1.9113032 1.253888
H 0.9562744 -1.0495772 -1.7133173
H 1.4604099 0.36763158 -0.9621088
