10

C -0.33982654 0.17832868 0.88919187
O -0.13661035 1.55373334 0.99129983
C 0.00033656 -0.44643192 -0.24100807
O -0.30648358 -1.73506332 -0.51842095
N 0.74071062 0.13823420 -1.26021103
H 0.60788357 1.69325030 1.59178865
H 0.42246806 -0.13850430 -2.18033630
H 0.76223535 1.14147072 -1.14439727
H -0.91488418 -2.05711652 0.15826396
H -0.83582948 -0.32790134 1.71382955
