10

O -0.90833893 -1.34260841 -1.18019633
C 0.00404447 0.88052103 -1.06437536
C -0.01875454 -0.77891142 0.91143546
C -0.36367883 -0.48109499 -0.52878264
N 0.56543555 0.10458297 1.61642793
H -0.40908627 1.66520098 -0.42422325
H -0.31584808 -1.78107850 1.24289419
H 0.72249997 -0.24962028 2.56090769
H 1.09163479 1.00088710 -1.04829786
H -0.36790834 0.98212166 -2.08579034
