12

C 0.542516 0.047640294 -0.7084022
N -0.16733845 0.3128642 0.32038862
C -1.4517903 0.5703816 0.8805841
N 0.09902518 0.27777627 -1.9705435
C -0.31929448 -0.0061218124 1.7109748
O 1.8069471 -0.39594215 -0.64865154
H -0.8757831 0.52550656 -2.0384338
H 2.0591264 -0.42332226 0.28727114
H -0.22035818 -1.0740137 1.9415289
H 0.18747106 0.65482354 2.4158573
H -2.1511242 -0.18989432 0.5030624
H 0.4906029 -0.2996981 -2.6936357
