12

C -0.55904427 1.55820747 0.68404490
N -0.62310646 -0.53019149 -1.81676716
C 0.45306575 0.76866852 1.49442334
N 0.13149742 0.43917659 0.13552617
C 0.16153470 -0.51910485 -0.70912882
O 1.01522138 -1.55116177 -0.63702408
H -1.60106433 1.26135735 0.87294757
H -1.33030621 0.18776147 -1.84211747
H 1.43440780 1.21462399 1.66357095
H 0.17580616 -0.00333155 2.22276370
H 1.59614188 -1.39245458 0.12300140
H -0.85415375 -1.43355119 -2.19124078
