11

C -2.13283157 -0.33975397 -1.92905808
N 0.44668542 0.40456300 0.22638398
C -0.47826257 -0.43707084 -0.26781421
O -1.14787254 0.28421483 -1.31599692
C 1.32990434 0.04411143 1.31613484
O -0.73611568 -1.55702937 0.04819230
H 0.50259935 1.32005445 -0.19682942
H -2.43000148 0.45312542 -2.65787543
H 1.16727242 0.70372060 2.17262762
H 1.10390789 -0.98506088 1.60492022
H 2.37471452 0.10912520 0.99931516
