11

N 0.76731646 0.75262908 -1.32809383
C -0.32465402 0.04378704 -1.49509619
C -0.91180870 -0.55349955 -0.36814453
C -0.11614421 -0.20758912 0.74239338
N -0.00397675 -0.34598720 2.00295174
N 0.98115030 0.63583830 0.11176528
H -0.70628175 -0.03361343 -2.50846345
H 0.99121449 1.56663007 0.53192231
H 1.89391707 0.21081940 0.28348656
H -0.76484413 -0.91053875 2.37184376
H -1.80588898 -1.15847583 -0.34456490
