11

N 1.3367426 -0.29077512 -0.7175816
C -0.07805666 0.7346806 -0.6033317
N 0.7783751 -1.06956 0.44465825
N -1.1162862 -0.18596284 1.5521989
C -0.18627408 -0.22119625 0.58414316
C 0.4566955 0.12621647 -1.7771618
H -1.178542 -0.9434449 2.2133956
H -1.898235 0.44489044 1.475882
H 2.0894253 0.31358868 -0.41480616
H 0.0068228617 -0.71745926 -2.300073
H -0.2106673 1.8090223 -0.45732406
