11

N 1.4747239 0.3717791 1.359749
C 0.43712965 0.20202534 0.439471
N -0.27674678 1.23347 0.023415452
N -1.2138765 0.68424165 -0.77928793
C -1.100538 -0.6546135 -0.8906175
C -0.028980749 -1.0212027 -0.10633508
H 2.2851276 -0.19543117 1.1547749
H 1.7326931 1.3455553 1.4477903
H -1.8908699 1.287617 -1.2149311
H -1.7766813 -1.2375185 -1.498906
H 0.35801893 -2.0159225 0.064877115
