10

N -0.026476486 -2.2409146 0.2712637
C -0.14310493 -1.1280509 -0.18928003
C -0.38633952 1.2266552 0.43189347
C -0.2795932 0.12028299 -0.69173616
C 0.88350904 1.1153868 -0.23919389
H 1.6130077 0.5747468 0.38409394
H 0.83398783 -2.7673893 0.15794471
H -0.5934262 0.88994026 1.4536885
H -0.77827173 0.2576835 -1.6471883
H -1.1232926 1.951659 0.06851391
