10

N 0.6850804 1.565623 1.5032884
C 1.0827515 0.67466223 0.802019
C -0.81345266 0.06798878 0.13146684
C -0.35490108 -1.0499164 -0.7362362
C 0.6490405 0.056714267 -0.39163908
H -0.8492516 -0.36892632 1.1307455
H -0.25640815 -2.0448906 -0.30677927
H 0.8998244 0.6952923 -1.2373725
H -0.54762393 -1.0522527 -1.8066502
H -0.4950594 1.4557056 0.9111575
