10

N 0.9055032 1.924009 -1.8500687
C 0.35420272 1.0781411 -1.2849337
C -0.32711512 0.023684684 -0.5727547
C -0.48232815 0.12145944 0.9290124
C 0.46441612 -0.87746257 0.34960255
H -1.1443936 -0.43090373 -1.126356
H -1.4223528 -0.22613329 1.345352
H -0.066522725 0.99842316 1.4137774
H 0.19013178 -1.9272062 0.358462
H 1.5284584 -0.68401176 0.43790698
