10

C 0.8202857 -0.09531106 0.7844476
C 0.44737718 1.136059 0.26005733
N -0.5102003 1.2616614 -0.6581591
C -1.0922983 0.12782243 -1.0445216
N -0.82385045 -1.1053108 -0.618605
C 0.13858114 -1.204784 0.29954746
H 1.5992019 -0.18685532 1.5308405
H 0.9303922 2.055836 0.5851797
H -1.8763733 0.21815298 -1.7940907
H 0.36688414 -2.207271 0.655304
