11

O -0.71882349 2.21751571 -0.51656149
C -0.68981408 0.05085469 0.68015691
N 0.78087482 0.53197469 -1.07318144
C -0.29106209 1.11247720 -0.32086078
C 1.17434245 -0.70264303 -0.78878682
C 0.25403985 -1.11791171 0.35034537
H -1.75133649 -0.17942991 0.55489865
H 1.20685912 1.08929061 -1.80806113
H -0.27622004 -2.02470414 0.03287572
H -0.56444069 0.44932320 1.69119242
H 0.87558005 -1.42674691 1.19798285
