9

O -0.30915207 -1.2849518 0.8813696
C 0.42662445 0.07473401 -1.0284588
C 0.47145733 -0.19845644 0.39576137
C 0.42031434 0.32104236 -2.207262
C -0.70035106 0.022461457 1.2556587
H 1.4598479 -0.12604852 0.85085297
H 0.40666798 0.5337321 -3.2530978
H -1.6222718 0.3803878 0.8013755
H -0.55313706 0.2770989 2.3038003
