9

O 0.15676776 -1.57366385 0.14998164
C 0.61474406 0.72655466 -0.58269130
C 0.35787214 -0.20807315 0.49690760
C -0.95281164 -0.85502023 0.65480173
C 0.84128939 1.52615577 -1.45424157
H 1.03893086 2.22831860 -2.23340835
H -1.28936859 -1.14399471 1.64895271
H 0.96714572 -0.06386718 1.38980039
H -1.73456947 -0.63640999 -0.07010282
