9

O -1.0825292 1.9139422 1.0600126
C -0.83178884 1.1010315 0.08129407
C 0.44271776 0.38191694 0.23153992
C 0.66422474 -0.97222704 -0.052609075
C 0.8351689 -2.1433814 -0.3195632
H -0.6174567 1.5651139 -0.95011806
H 1.2432268 0.9452355 0.7126302
H -1.6421676 0.38076773 -0.19630161
H 0.988604 -3.1723998 -0.5668848
