10

N 1.7583681 -1.0343645 -0.11443146
C -0.4359894 0.12938786 -0.1316903
C 0.93885976 0.29514334 -0.18648584
N -1.3841567 1.0186995 -0.530276
C 0.9638812 -1.2334852 0.7971468
O -0.7913117 -0.9892736 0.41912675
H -2.3365266 0.6838036 -0.4894111
H 1.541112 1.1877593 -0.24658002
H -1.1668772 1.6265875 -1.3019457
H 0.9126405 -1.684258 1.7845469
