10

N -1.82552520 0.40228997 0.68454174
C -0.98439465 1.19812030 1.15417478
C -0.36573832 -0.00759025 0.64643744
N 1.14287806 -1.01244334 -0.95121883
C 0.29830489 0.03486147 -0.70245218
O 0.12253996 0.95322775 -1.47818149
H -0.92358340 2.17654829 1.61131951
H -0.07504551 -0.80956702 1.32562617
H 1.09393569 -1.85629176 -0.40397821
H 1.51662833 -1.07915572 -1.88626860
