10

N 1.7353221 0.083392724 0.46661735
C -0.5921434 -0.44051623 0.0837565
C 0.58579206 0.4586677 -0.1735275
N -1.478053 -0.73766536 -1.1109393
C -1.9177392 0.04202844 -0.23907042
O 0.49618545 1.456757 -0.86042947
H -2.7867918 0.6481169 -0.021343524
H 1.8421156 -0.84899163 0.83158636
H -0.45720282 -1.255794 0.7951492
H 2.5725145 0.5940044 0.22820072
