11

N 0.94566949 -1.44024386 1.27219567
C 0.09178741 -0.40575904 0.96106764
O -0.63911265 0.12571890 1.77186705
N 0.16991376 0.00074289 -0.36135543
C -0.59956060 1.03774694 -0.87401406
N -0.44951027 1.39272330 -2.08239725
H 0.77700397 -1.83468504 2.18504497
H -1.28671709 1.45150174 -0.13503387
H -1.08001164 2.15731673 -2.30244023
H 0.86016686 -0.38827360 -0.98816540
H 1.21037082 -2.09678885 0.55323103
