11

N -0.69689476 0.4053071 1.9832352
C 0.02247303 -0.26290897 1.0159533
O 0.7374263 -1.2154659 1.2480546
N -0.11953562 0.2858978 -0.2510529
C 0.52481663 -0.23041293 -1.3655767
N 0.40402198 0.35297918 -2.4857996
H -0.7312566 -0.0857876 2.8642871
H -1.5510682 0.87427694 1.7208819
H -0.6164796 1.1543998 -0.39279437
H 1.0943645 -1.1335186 -1.1411425
H 0.9321324 -0.14476673 -3.1960459
