11

N 1.658989 1.9299743 -0.032726575
C 0.5238688 1.3831528 0.11288125
O -1.8229425 -0.097085655 0.480872
N -0.71767795 -2.0165827 -0.07353457
C -0.80386513 -0.65790474 0.13296019
N 0.39499134 0.010346946 -0.057652455
H -1.6160794 -2.4748554 -0.08719891
H 1.5872132 2.930357 0.124234185
H -0.03235285 -2.3763442 -0.72078216
H 1.2504661 -0.49336758 -0.24502516
H -0.42261016 1.8623097 0.3659722
