11

N -0.14298452 0.12068378 0.50297785
C -1.3845958 -0.39530346 0.13301246
O 0.86755127 -0.24272287 -1.5620863
N 2.1236234 0.63512313 -0.14186126
C 0.9154581 0.17712809 -0.3459158
N -2.3240376 -0.41944957 0.9804907
H 2.0730898 0.20527168 -1.3982162
H -3.1589422 -0.8218803 0.5667785
H 2.4837875 1.0129085 0.7201844
H -0.057568364 0.4635145 1.4491283
H -1.3953813 -0.7352735 -0.90449256
