10

O 1.2560422 -1.3834323 0.9893394
C 0.3590133 -0.9468397 0.014912048
C -0.019103816 0.49828547 0.22068493
O 0.42096177 1.1489981 1.1440974
C -0.98222196 1.1485482 -0.7586697
O -1.4524512 0.5540735 -1.6923709
H 1.4033464 -0.6379128 1.5854391
H 0.78340334 -1.0482671 -0.9953588
H -0.56551665 -1.5440947 0.021092046
H -1.2034736 2.2106411 -0.5291658
