10

O -0.69757026 -1.3573619 -0.32411262
C -0.47580615 -0.067413375 -0.66985273
C 0.9599347 0.28927138 -0.113962494
O -0.0021545119 0.8986109 1.2462262
C -1.0016751 0.52748364 0.5629399
O 1.5817907 -0.7753483 0.23461781
H 0.8071053 -1.463366 0.12186432
H 1.5493662 1.1666578 -0.36998478
H -2.0039823 0.49771613 0.9928495
H -0.7170089 0.28374985 -1.6805853
