10

O 0.23149541 1.4079356 0.38031796
C 0.1821727 -0.78103936 -0.43610767
C -0.9697032 0.6578794 0.3963043
O -1.0781617 -0.0998557 -0.770175
C 0.26226592 0.048889603 0.84721315
O 1.1572192 -0.6242408 -1.3785197
H 1.3538437 0.32363963 -1.4144197
H 0.0019393609 -1.8483789 -0.29817417
H -1.8508283 1.0801718 0.8640401
H 0.7097571 -0.16500153 1.8095207
