10

O 0.01930444 0.43455005 -1.711667
C 0.66917264 0.5126557 0.6291081
C -0.78251636 0.4467964 0.60661167
C 0.33108038 -0.22712776 -0.684401
N 0.19316909 -1.5488759 -0.5311738
H -1.3006 -0.34563464 1.132644
H -1.3503535 1.2755145 0.19828212
H 1.1779411 -0.11029555 1.3596793
H 1.1129284 1.4930049 0.4499337
H -0.07012622 -1.9305876 -1.4490169
