10

O -1.6863303 -0.594847 -1.5272444
C -0.80658674 -0.26781878 -0.7792179
C -0.37705144 -0.61831176 0.66095114
C 0.7709037 0.4004865 0.44476932
N 0.24209145 0.6092598 -0.8991602
H -1.1112448 -0.35011688 1.422219
H -0.065721594 -1.656835 0.78931934
H 0.72765625 1.2895663 1.0813841
H 1.7790644 -0.022041712 0.46559006
H 0.5272191 1.2106583 -1.6586108
