10

O 0.82187444 0.936057 -1.7091131
C -0.017023692 0.81448364 -0.60529685
C 0.20782384 -0.49092126 0.12236907
O 1.0229042 -1.3019105 -0.2583969
C -0.61743474 -0.78684235 1.3660282
O -1.4427985 -0.021806045 1.7903972
H 1.3465573 0.12211116 -1.7542889
H 0.14033958 1.6340568 0.11184302
H -1.0779498 0.859336 -0.8965416
H -0.38429242 -1.7645644 1.8329997
