10

N 0.4710148 -0.08432045 -0.17934254
C 0.8507386 -1.0215969 0.5887339
O -1.5955514 -0.023894006 0.9308555
N -1.1412053 1.414554 -0.7765252
C -0.84287804 0.39724594 0.076056875
O 2.0547047 -1.5742962 0.47630924
H -2.0655591 1.807074 -0.74851876
H 0.25793308 -1.4580474 1.3912233
H -0.49499997 1.6661384 -1.5054008
H 2.5058024 -1.1228573 -0.25339165
