11

C -1.3071834 -0.78854054 0.68067145
N -0.12748466 -0.052673765 0.26727587
C 0.39785248 0.09929866 -0.971329
C 1.4882102 0.904938 -0.7686907
N 1.5684527 1.1954241 0.5555521
N 0.59265435 0.61663693 1.1741449
H -1.3673627 -0.71006304 1.7665924
H -2.2022707 -0.35460225 0.23045611
H -1.2198125 -1.838215 0.39267665
H -0.03040163 -0.35898462 -1.8480906
H 2.2073462 1.2867813 -1.4792589
