11

C -1.3065795 -0.7877762 0.68238676
N -0.12826863 -0.05118771 0.2657865
C 0.3961922 0.09849001 -0.9707345
C 1.4886228 0.9033348 -0.7698693
N 1.5701655 1.1943187 0.55301815
N 0.59294367 0.6168869 1.1730764
H -1.3634956 -0.7023814 1.7675972
H -2.203878 -0.3565252 0.23179018
H -1.2180814 -1.8383216 0.39905775
H -0.031792916 -0.3593096 -1.8489166
H 2.2041721 1.2824712 -1.4831927
