11

C -0.93515116 0.0008375733 0.6920016
N 0.15950419 0.06235567 -0.102059454
C -1.3236414 -1.3392609 0.7634697
C 1.043852 1.1962774 -0.32608074
N -0.3733053 -1.9593048 -0.085037336
N 0.4699485 -1.0956106 -0.64556915
H 1.4509147 1.1192933 -1.3333323
H 0.46881324 2.116508 -0.21939796
H -1.4954753 -2.167283 -0.32196292
H 1.8526257 1.1748012 0.4074125
H -1.3180851 0.891386 1.1705562
