11

C -0.43222433 0.996555 1.186704
N -0.050133646 -0.68600094 -1.7745724
C 0.8306276 -0.9256809 0.099304624
C 0.86012787 -1.5170997 -1.1693047
N -0.6073058 0.29241753 -1.0744176
N -0.038301133 0.12428152 0.09687595
H -0.4473797 2.0287063 0.8334476
H 1.3709044 -1.1744132 1.0018036
H -1.4266535 0.7183053 1.5441856
H 0.29171777 0.8902178 1.9949136
H -0.35137963 -0.74728835 -2.7389405
