11

C 0.013775672 0.71904063 -0.2315394
N -0.22248046 -0.95877856 1.4242849
C 0.05042089 1.7018075 0.64231706
C 0.13208608 -1.6581568 -0.8336355
N 0.19718263 2.6041896 1.4532923
N -0.05330119 -0.663108 0.26270047
H -0.6464954 -1.5159874 -1.5874056
H 1.1157066 -1.511732 -1.2873219
H -0.6598766 3.0173888 1.8163482
H 0.021576792 0.89954704 -1.2985772
H 0.051405046 -2.6342108 -0.36046365
