9

C 0.98765264 -0.62544990 -1.91098423
C 0.40912524 -0.38567487 -0.75539768
C -0.15010407 -0.15378546 0.36333948
C -0.72741991 0.07881255 1.52466293
O -1.12454291 1.28343346 1.99868224
H -0.92022055 1.96704779 1.35177214
H 1.20433468 0.18187113 -2.60369908
H 1.26398799 -1.63386340 -2.20211439
H -0.94281326 -0.71239128 2.23373818
