9

C -0.07595505 0.5484659 -0.8473998
C 1.0791335 0.8978859 -0.20354013
C -1.1927708 -0.05689752 -0.932831
C -1.1568264 -0.99943745 0.16232446
O -0.38069054 -0.8827972 1.1521928
H 0.4477583 -0.1068266 0.74972564
H 2.0451407 0.670921 -0.6503837
H 1.040037 1.8066602 0.3993656
H -1.8058267 -1.8779743 0.17054605
