10

O -0.50889915 -1.9811538 -1.0577458
C 1.0207498 0.20514506 0.12564227
N 0.57859266 -0.98993146 0.85845983
C -0.13975285 -1.3020469 -0.19203386
C -0.05092084 1.0362645 -0.22678751
N -1.2371659 0.5394 0.005712906
H 0.15123996 1.9889692 -0.72207296
H -1.9797456 1.0184431 -0.49666134
H 2.0803683 0.34154052 -0.031923223
H 0.08553377 -0.85663015 1.7374097
