10

O -1.7657319 -1.1051588 1.213251
C -0.8775813 -0.54690313 0.60271394
N -0.8659504 -0.13760108 -0.72184247
C 0.34316838 0.46468815 -1.051139
C 1.1127075 0.4484916 0.051810298
N 0.37427235 -0.16401294 1.059699
H -1.6506523 -0.2881382 -1.3315469
H 0.5441493 0.8494281 -2.0394537
H 2.1128721 0.81595325 0.21261829
H 0.67274606 -0.3367469 2.0038896
