10

O 0.40297747 -2.287204 1.090928
C -0.121075444 -0.4618338 -0.667506
N -0.14891477 1.4856423 0.6922351
C 0.50939584 -1.4213991 0.28054163
C -0.7969143 0.73332894 -0.095839895
N 1.3466496 -0.60193247 -0.36029226
H -0.724679 2.2589061 1.0220953
H 1.7838714 0.18414716 0.11498547
H -1.8363373 0.88557947 -0.41052097
H -0.41497347 -0.7752349 -1.6666265
