11

C -0.93669796 1.3023455 0.29449624
N -0.08866103 0.1590478 0.029923547
C -0.380887 -1.1498083 0.009162355
N 0.695505 -1.8574666 -0.27784416
C 1.6396112 -0.89637864 -0.42438224
N 1.2188169 0.33881283 -0.24862728
H -0.577478 1.827676 1.1820884
H -0.91394854 1.9784697 -0.5630164
H -1.957244 0.953988 0.46169785
H -1.3705038 -1.5413623 0.20584509
H 2.671487 -1.1153241 -0.6693433
