10

N 0.37436173 2.44573975 -1.82499975
C -0.58213126 -1.03713315 0.05882386
C 0.21570349 1.83977129 -0.83839081
C -0.07548404 1.25352976 0.40412312
C 0.51050469 -0.08557597 0.62587618
H -0.68916960 -0.92380021 -1.02303086
H -0.28049407 -2.06700225 0.26602551
H 1.45548378 -0.28402580 0.10489177
H -1.54946965 -0.85285199 0.53240730
H 0.62069490 -0.28865170 1.69427387
