12

N -1.72541533 0.69232634 0.34948926
C 0.79862930 -0.97914138 -0.98843306
C -0.44601740 -1.26120262 -0.54509006
N -0.57702067 -0.20019775 0.54067982
C 0.68321552 0.63930372 0.65608348
O 0.84161645 1.52858600 1.44657386
N 1.46514770 0.10337434 -0.29266511
H 1.34420883 -1.46310681 -1.78366285
H -1.56007826 1.08512821 -0.57689024
H -2.49315136 0.03868138 0.21293279
H -0.72504195 -0.63380901 1.45487471
H 2.39390716 0.45005766 -0.47389230
