11

N 0.48035717 0.52244383 -1.4015743
C -1.1937945 0.15107037 1.2201828
O 2.0541248 0.8388807 0.22184741
C 0.99880433 0.36387724 -0.15214986
C 0.12476895 -0.40649313 0.81338876
O -0.87138873 -1.2077601 0.12574495
H 1.0568709 0.992069 -2.0841966
H -1.6153176 -1.2018044 0.90486354
H -0.2846596 -0.054518934 -1.7126875
H 0.7216599 -0.95813555 1.5365958
H -1.4714258 0.96037096 0.52798486
