11

N -0.7520323 1.327122 0.41759908
C 0.49792126 -0.5406204 -0.5110151
O -0.7072583 -1.2938197 -0.13285182
C 0.9410986 -1.4117173 0.6063597
C 0.30878788 0.9502069 -0.33999217
O 1.1215721 1.7209162 -0.81405026
H 0.8405048 -0.7632192 -1.5217152
H -0.8628265 2.3088346 0.61541617
H 0.7292341 -0.82112604 1.5219536
H -1.4254723 0.66526973 0.7595481
H -0.6915292 -2.1418467 -0.60125214
