10

N -1.5923094 0.09973999 1.3047563
C -0.34930244 -0.023622137 1.041823
N -0.7241961 0.14081718 -1.2709628
N 1.5416625 -0.12541851 -0.6065185
N -1.4939172 0.2618763 -2.088468
C 0.164242 0.00041438962 -0.315007
H 1.7871708 -0.9521412 -1.1353709
H -1.7468815 0.059324037 2.310178
H 0.45100865 -0.15798143 1.7781572
H 1.9625225 0.6969913 -1.0185874
