11

O -1.47647322 -0.62583669 0.23711458
N 0.85389011 1.26300678 -0.78363159
C 0.54417462 0.06506998 0.03400747
C -0.41315716 -0.89154124 -0.68888494
O 2.02952623 1.51748570 -0.81700380
C -0.65447954 0.29017934 0.97299908
H -0.49688389 -0.03743512 2.00706359
H -0.67440699 -0.59072389 -1.70939651
H -0.10700831 -1.94423016 -0.67758732
H 1.45550504 -0.35312312 0.46607945
H -1.06068692 1.30714847 0.95924046
