9

O 1.4618694 -1.0702919 0.7977041
C -1.1570132 0.34642974 -0.7530275
N -0.2667498 1.3370018 -0.9437367
N 0.8420791 0.9647105 -0.30867234
N -0.75425977 -0.6519972 0.018292079
C 0.50362056 -0.25310978 0.32171172
H 1.0207412 -1.8868713 1.0686429
H 0.49729759 0.82399106 0.98837274
H -2.1475852 0.3901371 -1.1892872
