9

O -0.008722007 1.8232499 0.8011877
C 0.035843115 -1.0134295 -1.0650591
N -0.033219483 -1.5806414 0.11658849
N 0.05988396 0.35254332 -1.0710012
N -0.05719496 -0.49668962 0.9411148
C -2.5195573e-05 0.6250989 0.20832013
H -0.10979464 -0.598495 1.9415903
H 0.07032084 -1.6002107 -1.9722452
H 0.042908352 2.488574 0.099503994
