10

C 0.25729576 -0.6264191 -1.43479
N 0.113060705 -0.06603029 -0.10683318
N -1.026716 0.41307768 0.3639284
C -0.6616395 0.7851884 1.5758053
N 0.64201623 0.5427132 1.8295709
N 1.1150604 0.0010815728 0.7445603
H -0.38477454 -1.5034786 -1.5334785
H 1.3026648 -0.9065826 -1.5527173
H -0.023234809 0.12239605 -2.1767683
H -1.3337332 1.2380536 2.2907226
