10

C 0.9096586 0.49249464 0.88756865
N -0.358223 1.2184454 -1.187628
N -0.5562806 0.14418074 -1.5580071
C -0.9998055 -1.0025959 -0.8668522
N -0.5151622 0.12415979 1.08533
N -0.9833574 -0.84408754 0.42864135
H -1.3298289 -1.8730872 -1.4096296
H 1.0345038 1.5553988 0.66558856
H 1.3929248 0.28824398 1.8483397
H 1.4055706 -0.103152886 0.10664882
