10

C 0.06847694 1.3818264 -0.5356785
N -0.9432198 0.53979754 -1.02711
N 1.2016085 0.99812585 -0.0066938982
C -0.46969533 -1.2225682 0.45227003
N -1.2014619 -0.60817623 -0.6570354
N 2.1995633 0.6840714 0.4167045
H -0.30639714 -0.52234834 1.2785932
H 0.4946917 -1.6119374 0.1048316
H 0.026638333 2.4237797 -0.82874894
H -1.0702049 -2.0625706 0.80286765
