9

O 1.3872399 0.3917832 -1.2215594
C -0.7212825 -0.67428315 -0.5912682
N 0.47832128 0.3726455 0.9519559
N -1.4385271 -0.72200435 0.5298348
N -0.7501395 -0.15874894 1.4943292
C 0.4392552 0.057201985 -0.34106928
H 2.102393 0.8373783 -0.7472102
H -1.0441453 -1.1371295 -1.5129771
H -0.45311472 1.0331568 1.4379644
