9

O 1.97771527 -0.33756742 -0.18227188
C -0.08356206 0.92572610 -0.63631628
N -1.32814944 -0.30086048 0.49415020
N -0.14696571 -0.88578897 0.65845825
N -1.34897319 0.77458137 -0.26261848
C 0.65861252 -0.11734114 -0.05515287
H -2.16147501 -0.66734443 0.92477996
H 2.19738655 -1.12436927 0.33530503
H 0.23541110 1.73296435 -1.27633388
