11

C 1.0101333 -0.8085512 -1.142789
C 0.21784082 -0.16367847 -0.058669876
C -0.8829562 0.6308804 -0.05156118
C -1.091455 0.88233864 1.3313587
N -0.19910078 0.29151207 2.0756817
O 0.62954324 -0.371067 1.2009149
H 1.0083107 -1.8968046 -1.0318042
H 0.58096075 -0.55490065 -2.1133032
H 2.049809 -0.4689604 -1.1192493
H -1.4587889 0.9830576 -0.8945491
H -1.8642972 1.4761734 1.8039709
