11

C -1.20851644 -1.73365583 -0.41759172
C 0.64030983 -0.02846508 -0.03846756
C -0.79222760 -0.44711109 0.11243239
C 0.92999744 1.44265318 0.15011838
N -1.02190833 -1.78372422 0.81435097
O 1.49350063 -0.84863495 -0.29920457
H 0.68069738 1.74089317 1.17382608
H -1.50065189 -2.35882519 -1.25015047
H 1.98696793 1.63540583 -0.03858554
H 0.31605829 2.04759761 -0.52320713
H -1.52422750 0.33386636 0.31647952
