17

C -1.5298454 2.238872 0.13722494
N -0.6641459 1.1780268 -0.34258983
C -0.112472646 0.3188089 0.59214675
O -0.22450818 0.52387655 1.7951378
N 0.60274076 -0.74194324 0.08115341
C 1.0420066 -1.7865623 0.9822297
C 0.8349572 -0.9385113 -1.3355856
H -2.4643023 1.8646113 0.5760742
H -1.005936 2.8087013 0.9085216
H -1.7647383 2.906531 -0.69491976
H -0.9353031 0.7707278 -1.2248253
H 0.5237417 -2.7350948 0.78073007
H 0.8256316 -1.4730846 2.0032525
H 2.1208985 -1.9560246 0.8784584
H 0.99920535 0.023416044 -1.8318465
H 1.7419631 -1.5372052 -1.4675115
H 0.010106446 -1.4651456 -1.8376505
