11

N 1.8486849 -0.11252189 -1.4379057
C 0.60003763 -0.13171768 -0.8684764
N -0.5462638 -0.24453774 -1.4431163
N -1.4985534 -0.06889295 -0.433442
C -0.8352264 0.092804246 0.6564897
N -1.2999829 0.19631223 1.9441975
O 0.51377296 0.076977745 0.47309682
H 2.5462508 -0.64834374 -0.93941677
H 1.8022777 -0.35469303 -2.4182172
H -0.8262078 0.89219594 2.503415
H -2.3047898 0.30241692 1.9633754
