11

O 1.21066687 -0.95213166 1.85550733
C 0.57816224 -0.50727959 0.92578049
C -1.00826979 -0.34555419 -0.73250371
C -0.31612630 0.78746199 -0.87083271
C 0.77158658 0.81215168 0.16954548
N -0.50082326 -1.12196609 0.32032470
H -0.84875992 -2.02124716 0.61012617
H -1.85691013 -0.70787452 -1.29833460
H -0.50095683 1.56041662 -1.60078255
H 0.68870052 1.64988400 0.87084144
H 1.78273018 0.84613931 -0.24967181
