11

O 1.805149 -1.5415708 0.42446795
C 0.8762026 -0.7902551 0.23757014
C -0.6007123 0.9539712 -0.45548376
C 0.81315404 0.46909815 -0.63435733
C -1.2327179 0.119177446 0.37253284
N -0.38199258 -0.91370916 0.79464275
H 1.5688895 1.1859884 -0.29463118
H -1.0244329 1.8311596 -0.91964895
H -2.2535303 0.14641175 0.73146373
H -0.6329709 -1.6686913 1.4117028
H 1.0629619 0.20841971 -1.6682589
