9

O 1.2067777 0.5403384 0.7589105
C 1.8054236 -0.16113752 -0.16506398
C -0.92240995 -0.21311384 -0.27393293
O -1.3738079 -1.3329763 -0.7928482
C -0.23051946 0.4742259 0.745116
N -0.9376824 1.0466208 -0.43628508
H 2.8791435 0.06420136 0.04050946
H -1.8339025 -1.1179847 -1.6200871
H -0.5930224 0.6998257 1.7436814
