9

O 0.50286296 -1.05349451 -1.93360400
C 0.40017066 -0.21665261 1.30279350
N -0.39671814 0.71727279 0.99875174
O 0.87158643 -1.02644769 0.30405002
C 0.29497090 -0.55936282 -0.87181026
C -0.56897985 0.61662483 -0.44329368
H -1.61669327 0.44293667 -0.70767088
H 0.76407135 -0.45692385 2.29658856
H -0.25127115 1.53604721 -0.94580536
