9

O -0.64508784 -0.89464957 0.8301615
C 0.5754737 0.40934289 -0.6338311
N -0.42228544 1.2200944 0.049146052
O 0.95709884 -2.0218005 -0.31277886
C -1.0291963 0.41980785 0.81784004
C 0.39675272 -0.99766445 -0.08485617
H 1.5877241 0.77764845 -0.43763104
H 0.4252008 0.42313915 -1.7178025
H -1.8456807 0.6640818 1.4897523
