9

O -1.25247664 0.68579885 -0.47112195
C -0.47794344 -0.56307917 1.25277079
C -0.03452418 0.64209190 -1.09397596
N -1.47374825 0.05961654 0.74052884
C 1.00791175 -0.11316958 -0.38027515
N 0.80908335 -0.69748937 0.74344933
O 0.11449845 1.19779220 -2.14653876
H -0.68066041 -1.04436847 2.20277139
H 1.98785928 -0.16719297 -0.84760874
