11

N 0.23185186 -0.24514240 1.03065082
C -1.60201338 -1.40292820 -0.10268017
C 1.28859469 0.57622860 0.40411392
N 0.81130199 1.04701379 -0.90482271
C -0.68113954 -0.46148150 -0.05727945
C -0.27041252 0.42457931 -1.15853996
O -2.48523219 -2.16489598 -0.15305583
H 2.18848981 -0.02458731 0.22912913
H 1.55864352 1.42014476 1.04408804
H -0.22737663 0.28461171 1.76237797
H -0.81270789 0.54645708 -2.09398171
