11

N 0.41537464 0.7877753 -1.3341765
C 1.1945586 0.8491364 -0.08843604
C -1.2775788 -1.5634245 0.68461215
N 0.44924104 0.14567253 0.97624445
C -0.5729138 -0.5432828 0.23835
C -0.5446586 -0.026048256 -1.1394182
O -1.9831982 -2.412574 1.0644206
H 1.3929867 1.8864013 0.19333611
H -1.2519695 -0.29777533 -1.920357
H 2.1542623 0.3540909 -0.27634403
H 0.02389567 0.8200283 1.6017686
