11

C -0.8220809 0.7473011 -0.83458394
C 0.5004507 0.6252809 -0.13017608
O 0.4933812 0.685038 1.2895745
C 0.8693873 -0.54361963 0.68873036
C -0.053867884 -1.6575277 0.8545416
N -0.77179265 -2.5574822 0.96675587
H -1.1551404 1.789479 -0.8294747
H -0.7266917 0.4244084 -1.8770752
H -1.5867684 0.13837565 -0.34592712
H 1.3361562 1.1639303 -0.5815049
H 1.9169668 -0.81518334 0.79913974
