11

C -1.02757431 -0.17513794 0.05955706
C -0.12048037 1.01834226 0.17809532
O -1.05987710 -0.00006342 -1.36941196
C 1.31369245 0.66128867 0.21830438
C -0.53122843 -1.53349491 0.33496883
N -0.11823108 -2.57270972 0.63376652
H 1.93757446 1.42107035 -0.25727938
H -1.49620109 0.84972544 -1.53166988
H -2.01439796 -0.06272780 0.51989503
H 1.60805630 -0.34925579 -0.09040952
H 1.50866739 0.74296334 1.30418373
