11

N -0.3853912 1.2929921 3.006688
C -0.27311435 0.5908867 2.0881593
C 0.4345097 0.3412023 -0.25064865
C -0.14966142 -0.26253223 0.94704
C 0.3621289 -0.45899454 -1.4557506
O -0.8966627 0.24501272 -1.2242734
H -1.2600684 -0.17635936 -0.2547998
H 0.8333737 -0.10784734 -2.367166
H 0.21030839 -1.2687166 1.1667411
H 0.8428284 1.3462248 -0.30614397
H 0.28174904 -1.5418684 -1.349846
