11

N 1.4896258 2.6540518 -0.05643006
C 0.23938586 -0.5488867 -0.094921805
C 0.18646677 -1.0510378 1.3005639
C 0.6726671 1.8549412 -0.20271571
C -0.34868786 0.8203857 -0.39450982
O -0.7336661 -1.6270223 -0.16215548
H -1.1669263 1.0178738 0.3035879
H -0.7211226 0.8808678 -1.4245526
H -1.5836482 -1.312629 0.18054186
H 0.9247291 -1.8715245 1.3409992
H 1.0411764 -0.8170199 -0.7904073
