12

N 0.45633218 0.72855459 0.80468292
C -0.90457625 1.03712986 1.17542187
C -0.92355934 0.14929324 -0.73063826
N -1.77069698 0.71496749 0.30617610
C 0.43223029 0.81319406 -0.68712533
N 0.99910693 -1.67615291 -0.20278327
C 0.31299213 -0.47399885 -0.11307863
H -1.10979026 1.49931932 2.13551558
H 0.75052437 -2.32872372 0.53200555
H -1.36909542 -0.24153110 -1.63832386
H 1.12374740 1.34022982 -1.33014215
H 2.00278493 -1.56228190 -0.25171081
