10

O -1.9649389 0.9916927 -0.18808332
C -0.8057301 0.35098454 0.04135409
N -0.47567382 -0.29960793 1.1171718
C 0.8007363 -0.76693666 0.8564923
C 1.2158397 -0.38437396 -0.380822
N 0.1551862 0.3479502 -0.9084381
H -2.4873755 0.8653131 0.6161543
H 1.3377086 -1.3554434 1.5880423
H 2.1278753 -0.54558027 -0.93445337
H 0.096371666 0.7960014 -1.8074179
