10

O 1.08252418 1.35518056 -0.70096215
C -1.61508277 -0.65371758 -0.48425520
N 0.19647484 -0.12767860 0.89043393
C -1.02952127 -0.56259647 0.89231800
C 0.59039361 0.06863151 -0.52472433
N -0.62935662 -0.20822595 -1.24145074
H -1.52051073 -0.81624865 1.82573744
H 0.82062091 -0.00280754 1.67488549
H 1.34387394 -0.69281034 -0.76409895
H 0.76058336 1.64027278 -1.56788338
