10

O 1.4732636 0.7554897 -1.2687718
C -0.2655056 -0.8932749 -0.9815382
C -0.40278688 0.10490003 1.5177726
N -1.3595399 -0.5420021 -0.11246432
N -1.0026512 -0.98402435 1.1290005
C 0.4569538 0.186473 -0.6335111
N -0.055814758 0.93981373 0.4812934
H 1.6430441 1.5931231 -0.8071565
H -0.330093 -1.4937568 -1.875627
H -0.15687016 0.3332587 2.5510027
