10

O -0.45470992 1.6268358 -1.2814764
C 1.2578208 -0.031077806 -0.52858746
C 0.061760638 0.5455169 -0.70262504
N 0.45526156 -1.1162275 1.496454
N -0.6905284 -0.55103326 -0.13501933
C -0.68440753 -0.56673306 1.2883848
N 0.63521373 -1.2086179 0.05930404
H -1.4019638 1.4751239 -1.4137332
H 2.300751 0.11639895 -0.7532757
H -1.4791982 -0.29018587 1.9705745
