11

N 2.20695134 -0.35390375 -1.20986861
C 1.05122423 -0.14026413 -0.75928769
N -0.11159493 0.02513297 -1.47545896
N -1.22582308 0.07469706 -0.63872641
C -0.70335473 0.09313879 0.52888384
N -1.34900120 0.13964744 1.72684208
O 0.65236775 -0.00158718 0.56859706
H 2.89151954 -0.43676147 -0.46454856
H -0.22691438 -0.39451839 -2.38255394
H -2.32546984 0.37285633 1.64081689
H -0.85990461 0.62156234 2.46530438
