11

N -0.87426776 0.9880306 -1.34419
C -0.27977368 0.23873897 -0.3131628
C 1.0159625 0.30277032 0.15718332
N 1.0771326 -0.5575679 1.2109995
N -0.07675262 -1.1765924 1.4532968
C -0.9111576 -0.70120496 0.53729534
H -1.5594454 0.45532826 -1.8614724
H -0.19209288 1.3633552 -1.9886461
H 1.8692725 0.88240904 -0.16238913
H 1.8708099 -0.75677466 1.7967025
H -1.9396875 -1.0384926 0.514383
