11

N -1.6976875 1.2008677 -0.17553015
C 0.11019387 -0.07472969 0.5334731
C -0.5089186 0.7486991 -0.56424206
N 1.7795118 -0.71068877 -0.12904827
N 1.5375013 0.36700514 0.5827087
C 0.59037066 -1.3159037 -0.18589346
H 2.6834786 -0.9229218 -0.5442435
H 0.23777916 -1.9727132 -0.9677604
H -2.2304583 1.7811841 -0.8060163
H -0.3870538 -0.15809168 1.5092214
H -2.1147172 1.0572927 0.74733096
