11

C -1.416392 -1.2060949 -0.42192414
N 0.8449071 0.36637792 -1.0102801
C 0.19864763 0.43661478 0.1946185
O -0.6743756 -1.9115608 -1.0550823
C 0.6075718 1.0396951 1.3144213
O -1.1112338 -0.06767061 0.20979923
H 1.8148085 0.63956857 -0.9792031
H -2.4880495 -1.4096042 -0.27631307
H 1.5693982 1.5364083 1.3477185
H 0.69040173 -0.5003348 -1.5111879
H -0.035684247 1.0766004 2.1874335
