10

N 0.9043843 1.9244609 -1.8470874
C 0.35408628 1.0786533 -1.2833408
C -0.32687095 0.023721863 -0.5730881
C -0.48237845 0.1211137 0.9286629
C 0.46424967 -0.87763315 0.3482607
H -1.1444796 -0.4294464 -1.1270422
H -1.4216355 -0.22730674 1.3449078
H -0.06613572 0.99723554 1.4139132
H 0.19032295 -1.9271071 0.35798138
H 1.528457 -0.68369204 0.43683255
