10

N 1.23040203 -1.89129739 -0.22123258
C -0.03922912 1.35717412 0.11637201
C -1.15743092 0.70159048 -0.50860334
C -0.39295439 -0.10167894 0.62105983
C 0.45563996 -1.05607252 0.18172953
H -0.88883596 0.31335649 -1.50265713
H -0.87639372 -0.24680022 1.58020751
H -0.21548896 2.02667136 0.96430276
H 0.94437193 -2.60227239 -0.88328472
H 0.93991911 1.49932887 -0.34789384
