10

N -0.21079998 0.23176047 -2.8171325
C 0.08803931 -0.83883184 0.82772905
C -0.22479692 0.6309617 0.99489456
C 0.13340649 0.083369575 -0.33638942
C -0.26388514 0.11045595 -1.619086
H 1.0365679 -1.2110196 1.2066396
H 0.93001115 0.3657956 -1.8697556
H -0.74081653 -1.5380754 0.92500424
H 0.51007545 1.2627054 1.4898205
H -1.2578018 0.9028783 1.1982759
