10

N 1.335299 -0.979967 1.5480568
C 0.46623427 -0.33205143 1.0140463
C -1.08579 -0.24487838 -0.92284757
C -0.12035711 0.80905855 -1.0899273
C -0.4871165 0.39687926 0.3945522
H -0.63572 -1.2322102 -1.106218
H 1.1979984 -1.954913 1.7852077
H 0.9155846 0.6620286 -1.4056629
H -0.46770737 1.8392969 -1.2173533
H -1.1184255 1.0367569 1.0001458
