10

O 2.0076234 1.1471913 0.4304463
C 0.96008754 0.59890604 0.20594159
C 0.43165046 -0.84786886 0.23367058
C -0.913894 -0.24290861 -0.23578428
N -0.2655784 1.0649515 -0.19627407
H 0.92378634 -1.516724 -0.4759034
H 0.4240906 -1.2997893 1.2275658
H -1.2343558 -0.5486184 -1.2366769
H -1.7440255 -0.35020852 0.46770048
H -0.58938444 1.9950686 -0.420686
