11

N 0.45469761 -1.51290214 0.22367894
C -0.30233045 0.46497764 -0.85161075
C 1.12782492 0.63129972 1.01182734
C -0.81510346 -0.78848103 -0.10883260
C 1.12536517 -0.70195636 0.88321446
O 0.57947331 1.29068045 -0.07109797
H -1.13516655 1.11584303 -1.13736464
H 1.54521104 1.26732218 1.77622336
H -1.36898852 -0.51434513 0.79274461
H -1.44341620 -1.40058824 -0.76473425
H 0.23243307 0.14815003 -1.75404853
