10

O 0.9552639 2.0900095 -1.1668935
C 0.6711338 1.1139475 -0.55093616
O 1.1281049 0.7572869 0.70665973
C 0.49992755 -0.53628516 0.5681175
C -0.9662694 -0.36870694 0.5075986
C -0.12047244 -0.15015705 -0.74394894
H 1.0764657 -1.4027557 0.85528505
H -1.5562735 -1.2796861 0.47796354
H -1.4299763 0.47353467 1.0129738
H -0.25790453 -0.6971877 -1.6668199
