10

O 0.28533016 2.65721619 -0.66127410
C -0.17399325 1.72782415 -0.12980085
O 1.91105243 -1.20083950 -0.69113769
C -0.11828559 -0.69293332 0.50473322
C -0.72415487 0.69531280 0.48177333
C 0.73637897 -0.94110563 -0.71897879
H 0.48849795 -0.86830958 1.39653831
H -0.93359903 -1.42693155 0.50161137
H -1.66001031 0.89597359 0.99632521
H 0.18878322 -0.84620722 -1.67979030
