11

C -0.8411322 -0.14025992 -0.7100375
C 0.40324342 -0.9267021 -0.29293826
O 0.6579379 -0.43075973 1.0083673
C 0.3536292 0.93341917 0.9219728
O -0.7360591 1.0661029 0.030833356
H -1.7643505 -0.66061354 -0.43151236
H -0.86531156 0.07989184 -1.7831335
H 0.25199145 -2.0059643 -0.23202541
H 1.2519176 -0.7117679 -0.959263
H 0.07231603 1.2969227 1.9136001
H 1.2158178 1.4997312 0.5341365
