11

C -0.5862868 0.22045161 0.8715872
C -1.0376357 0.7571847 -0.35182968
O 1.124046 0.31878027 -0.83349895
C 1.0586864 -0.8978262 -0.35243902
O -0.035118565 -1.0004642 0.8205401
H 1.948682 -1.239643 0.18663883
H 0.29245552 0.9733521 0.5066116
H -0.98082745 0.5634414 1.8314986
H -1.1285738 0.18178879 -1.2623632
H -1.3470594 1.7996913 -0.37824196
H 0.6916314 -1.6767565 -1.0385035
