10

C 0.22191024 0.1402383 -1.0735531
O 1.9156344 -0.41415924 0.5931231
C 0.9604331 0.20803067 0.16689533
O -0.21654269 0.41235444 1.2094967
C -1.1220504 -0.48249176 0.94536436
O -1.2403982 -1.0577701 -0.13991085
H 1.1527302 1.339795 -0.28783244
H -1.8073088 -0.6905603 1.7762252
H -0.5650067 0.86175114 -1.2542802
H 0.70059836 -0.31718814 -1.9355279
