10

C -1.28336851 0.63710520 -0.29697047
O -1.07053590 0.80084173 -1.46979700
C 1.60979334 -0.30578595 -0.37131706
O 1.83457141 0.79074466 0.06347095
C -0.51198528 -0.32327254 0.58226413
O 0.48338731 -1.00997640 -0.15704270
H -1.19244943 -1.08701775 0.97342193
H -2.09204436 1.18104936 0.23468175
H 2.29586090 -0.90944438 -0.98083582
H -0.07322946 0.22575604 1.42212427
