9

N 0.8843175 -0.34677687 -0.66273576
C -1.149612 0.20746626 0.12349179
C -0.48085818 -0.040155303 1.3152277
N -0.33630303 0.04268682 -0.9715935
C 0.78864235 -0.3834994 0.79136896
H -2.1763484 0.5076931 -0.06431544
H 1.3417073 0.55481946 0.123865485
H 1.6552165 -0.82360995 1.2798096
H -0.52676207 0.2813759 -1.9351189
