9

N -0.12029194 -0.8475501 0.45174545
C 0.36025012 0.3758859 0.85934955
C 0.2763461 1.1769756 -0.24678764
N -0.23721848 0.48219657 -1.3126384
C -0.4636016 -0.72678894 -0.8608458
H -0.20128389 -1.6771307 1.0142918
H 0.7029886 0.5492774 1.8676907
H 0.5543625 2.2178802 -0.34196588
H -0.87155133 -1.5507463 -1.43084
