11

C 1.106516 -0.85622394 0.74024594
C -0.8892277 -0.69639677 -0.03691635
O 0.8072454 1.1896329 -0.09080372
C 1.6447189 0.0747304 -0.035238184
C -0.58817077 0.8252291 -0.09109151
N -0.038083807 -1.1973474 1.0827596
H -1.0331547 1.3195984 0.7767325
H -1.0194844 1.2399538 -1.0061928
H -0.6347938 -1.1816218 -0.98542213
H 2.5931933 0.13435556 -0.54178905
H -1.9487588 -0.8519104 0.18771565
