11

C -0.35392830 0.95153191 -0.06758213
C 1.55068594 -0.34061576 0.43735664
O 1.01125549 0.94580406 0.39740917
C 0.62113524 -1.20873252 0.81155279
C -0.94950369 -0.43462186 -0.43197642
N -0.61638510 -1.29511456 0.74175950
H -0.38010293 1.59281566 -0.95274225
H -0.50623927 -0.82262608 -1.35545492
H -2.03403386 -0.34771696 -0.54813162
H -0.94628845 1.40855975 0.72976673
H 2.60340519 -0.44928359 0.23804254
