11

C -1.0241333 -0.10133324 0.69259316
C 0.33513212 -1.1258974 -1.1856505
O 1.3681635 0.17151166 0.41153967
C 0.10399128 0.7260867 0.4241203
C 1.3002124 -0.18436931 -0.9677976
N -0.65335554 -1.756171 -0.9791772
H -0.87548774 -0.9994467 1.2738079
H -0.35808447 0.88474506 1.549451
H -0.0229832 1.663052 -0.11619717
H -2.0238802 0.30428827 0.57113683
H 1.8504252 0.41753393 -1.6738263
