11

O 0.45613016 -1.61448737 -1.43797185
C -0.65872544 1.18715748 0.67857484
N 1.39471068 -1.70444484 -0.43907552
C 1.11366059 -0.74826104 0.39971286
C -0.02419340 0.01631123 -0.00572231
C -0.37280082 -0.59154779 -1.16337313
H 0.06349717 1.99658260 0.83096096
H -1.05894798 0.91032625 1.65894527
H 1.73052110 -0.61924969 1.28156299
H -1.48288656 1.58478947 0.08073662
H -1.16096535 -0.41717634 -1.88435094
