10

O -0.7225849 -0.029613093 -1.0907837
C -1.2373569 -0.34271595 0.20036975
C 0.5836584 0.30433124 -0.9738559
O 1.2593904 0.6840089 -1.8829944
C 0.9570629 0.109933116 0.48449987
O -0.13922898 -0.58595955 1.0358702
H -1.8381008 0.50971526 0.5449671
H 1.8648535 -0.49128482 0.5858376
H 1.1189686 1.0879519 0.95912904
H -1.846662 -1.246367 0.13696073
