10

O 0.904249 1.3221866 1.253673
C 0.6076637 0.10213267 0.66795146
N -0.7577642 -0.28480813 0.98450476
C -1.2921547 -0.56150097 -0.14381316
C -0.33588096 -0.29835322 -1.2541974
N 0.7707855 0.13325395 -0.78691804
H 1.2486776 -0.717846 1.0335916
H -2.3089812 -0.92876166 -0.2440695
H 1.6871184 1.6632185 0.8053426
H -0.523713 -0.42952183 -2.3160655
