9

N -0.120048605 -0.84723675 0.45121792
C 0.35792202 0.37679705 0.85971034
C 0.27436903 1.1782938 -0.24545278
N -0.23787507 0.48222235 -1.3119109
C -0.46278045 -0.7273052 -0.8605047
H -0.19863643 -1.6782764 1.0123824
H 0.7020212 0.5486865 1.8678254
H 0.5537714 2.2187014 -0.34147558
H -0.868743 -1.551883 -1.4317923
