12

O 0.40370062 1.1790447 -2.1681173
C 0.7530377 1.2887434 -0.81378585
C 0.21042645 0.16816854 0.019616382
N -0.75127286 -0.6106413 -0.43041947
N -0.9818639 -1.4170287 0.627046
C -0.1629087 -1.094135 1.643113
N 0.6084211 -0.0896002 1.2969769
H -0.4836005 0.800407 -2.2115655
H 0.40108865 2.238127 -0.37679872
H 1.8465308 1.2875402 -0.748481
H -1.678608 -2.1417856 0.56895477
H -0.1649512 -1.6088396 2.5934606
