12

O -0.8477476 0.65567595 -2.1143756
C 1.2780873 -1.3433217 1.628453
C -1.5466424 0.5271778 -0.95953816
N 0.69653356 0.5226586 0.244962
N 1.6020031 -0.250695 1.032562
C -0.4082483 -0.12960011 0.15996586
N -1.2541137 -1.0075916 0.30831808
H -2.4612656 -0.029558219 -1.142817
H 2.5029602 0.21970525 1.0163511
H -0.015021546 1.0985636 -1.9016643
H 2.186922 -1.7145898 2.1327837
H -1.7334672 1.4515754 -0.4050009
