10

O 0.2952924 1.1633503 -0.54826397
C -0.5777114 0.30846545 0.13256189
C 0.86118615 0.22478831 0.36994085
O -1.2889471 -0.6364907 -0.6519969
C -0.5641249 -1.4366322 -1.3965358
O 1.4984633 0.7307811 1.4633422
H 1.4120948 -0.58878005 -0.08745064
H 1.0058705 1.4929943 1.7982427
H -1.2856163 0.78320765 0.81488824
H -1.3565071 -2.041684 -1.8947287
