10

O 0.8565258 -1.1571097 -1.1861253
C -1.6676549 0.052357994 0.60302436
C 0.4002214 0.64045644 -0.48562047
O 1.3671601 1.4519631 -0.18244147
C 0.36408517 -0.77229583 -0.07070336
O -1.115115 -1.0581958 0.26652583
H 1.8541028 1.1373054 0.59645987
H 0.8478886 -1.0318964 0.8911344
H -0.19988087 0.95014095 -1.3287581
H -2.7073333 -0.21272627 0.8965043
