10

C 0.039445534 -0.5827642 0.35435477
O 1.8885213 -1.7740059 -0.6191068
C 1.0143089 -1.7497721 0.20343754
O 0.2616603 0.39660794 -0.5144991
C -0.640361 1.5116884 -0.40167803
O -0.82622516 -0.60588074 1.1937743
H -0.32380238 2.2141123 -1.169856
H -1.6703202 1.1856253 -0.57312644
H -0.56457067 1.9611742 0.5917392
H 0.8213435 -2.5567853 0.93496054
