10

C 0.2740209 0.5121362 0.4265153
O -0.8020742 -0.06432048 0.8621895
C -1.5137738 -0.9281805 -0.06355137
O 2.83074 0.42158106 0.40639222
C 1.860557 1.0289673 0.07407027
O 0.6795847 0.34283546 -0.7637399
H -1.9141735 -0.34719536 -0.89762795
H -2.3189125 -1.3617834 0.5276789
H 1.745218 2.096612 -0.13149428
H -0.8411869 -1.7006519 -0.4404328
