10

C -0.61523680 0.54210763 -1.47790810
O -1.09824439 0.18468513 1.11111981
C -0.02093540 -0.13083012 0.67021081
O 0.37197996 -0.01679701 -0.59314592
C 1.05161203 -0.72957844 1.57915772
O 2.13595954 -1.06241861 1.18568387
H -1.50869983 -0.08868420 -1.49669999
H -0.89038836 1.54820903 -1.15124153
H -0.13973899 0.56892587 -2.45611498
H 0.71369224 -0.81561914 2.62893820
