10

N -0.32644589 1.19455956 0.67057708
C -0.65279881 -0.95798984 -0.11012154
C 0.57392405 -0.63369248 -0.54211134
C 0.85377110 0.76186631 -0.06697569
C -1.15211247 0.21221516 0.62885277
H -2.12713147 0.27205213 1.10703239
H -1.19474671 -1.88414084 -0.25738032
H 1.25406345 -1.24171142 -1.12610622
H 1.73129673 0.81777216 0.58958318
H 1.04017982 1.45906913 -0.89335037
