10

N -1.0496602 0.26272637 0.36065724
C -0.6594206 -0.9677318 -0.10078126
C 0.6684116 -0.88652486 -0.4375657
C 1.0945222 0.4450136 -0.16841239
C 0.011101859 1.1289629 0.32355157
H -1.9745781 0.49521556 0.68002367
H -1.3573873 -1.7911325 -0.14885202
H 1.2760552 -1.6877292 -0.83411527
H 2.086196 0.8466821 -0.3221639
H -0.095240876 2.1545177 0.647658
