10

N -0.4668096 1.2472887 0.4577913
C 0.81320274 0.8038516 -0.07984392
C -0.5825842 -1.0072544 -0.04529632
C -1.2274939 0.21298638 0.46448874
C 0.6668244 -0.65847355 -0.38288042
H -1.0526267 -1.9802343 -0.119582966
H 1.4424822 -1.2897208 -0.79906374
H -2.2535071 0.2676633 0.8211477
H 1.6036743 1.0073414 0.65363604
H 1.0568376 1.3965518 -0.97039634
