11

C -0.17351635 0.05210048 -0.08319438
C 1.0611275 0.5899781 0.0004788526
N -0.17399742 -1.1640013 0.60024405
C 1.028985 -1.2798188 1.04037
C -1.4018221 0.5669286 -0.75651765
O 1.8484132 -0.26152563 0.7243206
H -2.2142673 0.6853964 -0.033372678
H -1.2140406 1.5356705 -1.2297635
H 1.5254395 1.4931487 -0.36322573
H 1.4562881 -2.0835857 1.6249332
H -1.7426099 -0.13429116 -1.5242729
