11

C 1.0212681 -0.03134731 -1.218215
C 0.7400197 -0.15334353 0.69977283
N 0.029258437 0.8607269 -0.023853054
C -0.24636783 -0.7710283 1.4289727
C -1.2440217 0.7740165 0.30202696
O -1.454379 -0.14205763 1.2284118
H -2.077939 1.3699801 -0.037959293
H 1.1534549 -1.1123608 -1.2613366
H 0.3862697 0.28345937 -2.0498972
H 1.9690849 0.49339068 -1.21839
H -0.27664813 -1.5714358 2.1504672
