11

C -1.51795587 0.16108848 -0.72711250
C -0.18031226 0.00113470 -0.08502870
N 0.32902813 -1.25852473 0.23091803
C 1.47627206 -1.01262242 0.75784749
C 0.72183560 0.93335830 0.28611465
O 1.79781145 0.29095943 0.83239654
H -1.54538285 -0.35275867 -1.69277417
H 2.20345970 -1.71499267 1.14283772
H -1.75241956 1.21770083 -0.88922828
H 0.76728679 2.01020663 0.24234651
H -2.29962329 -0.27555022 -0.09831750
