11

O -1.66968787 -1.25802546 0.36222236
C 0.31833466 0.66888502 -0.11538209
C 0.98454724 -0.15949453 0.93763869
O -0.42803548 -0.01465322 -1.09272666
C -1.34216712 -0.95325704 -0.74766611
N 0.48102163 1.90986664 -0.22314161
H -1.74803402 -1.38727331 -1.67207408
H -0.04273046 2.27671353 -1.01861081
H 1.67592064 0.48199170 1.48086443
H 0.23850457 -0.57887385 1.61631751
H 1.53232631 -0.98587964 0.47255817
