9

O -2.5746758 0.6784957 0.29436907
C -1.6283298 0.10092541 0.76285255
C -0.3004278 0.045154754 0.09572925
N 0.76385427 -0.5513139 0.5428634
C 1.6585252 -0.2833434 -0.45567393
N 1.1805928 0.421577 -1.4387078
O -0.12794529 0.6462223 -1.077959
H -1.6588176 -0.43977103 1.724686
H 2.687224 -0.617947 -0.44815978
