11

C -0.02713032 0.067449234 0.7241869
N 0.11272421 -1.0141481 -0.15662216
C 0.8359825 -0.09246215 -1.0367643
O 0.25896814 0.2587933 -2.2252977
C -0.66231006 0.28426358 1.8698734
O 0.76486003 0.9220341 -0.008041304
H -0.5937984 1.2510432 2.3497627
H 1.863423 -0.3842723 -1.2615353
H -0.71625715 -1.4632398 -0.5301565
H -0.594531 0.68036455 -2.0450954
H -1.2419312 -0.50982565 2.3196893
