11

C 0.400564 -0.3219686 0.65964633
N 1.2722914 0.29928055 -0.22658584
C 0.406126 -0.49520507 -1.2014073
O -0.736529 0.043593127 -1.4255478
C -0.6969712 0.3227758 1.2371833
O 0.27924126 -1.4982579 0.094662935
H -0.55139023 1.3294477 1.6252925
H -1.0138911 0.33968326 -0.19877456
H -1.4122543 -0.29612228 1.7707675
H 1.1365318 1.3031557 -0.33198118
H 0.91628134 -1.0263823 -2.0032558
