10

N -0.15796447 -0.7501876 -0.84587055
C 1.0612187 -0.28724748 -0.41847634
C 0.8362899 0.59440917 0.610035
C -0.5720687 0.66539115 0.8096182
C -1.156867 -0.17546988 -0.10398909
H -0.29786122 -1.410684 -1.5912354
H 1.9782119 -0.6236419 -0.8801196
H 1.5918807 1.1320932 1.1647967
H -1.08839 1.2676352 1.5437415
H -2.1944497 -0.41229793 -0.28850055
