10

C 0.37828755 1.6171993 1.9211516
C -0.5330992 0.07071421 -1.1073263
C 0.26366672 0.7556334 1.0912921
C 0.14910671 -0.31023028 0.11651528
N 0.6018197 -1.4967222 0.2796432
N -0.6702606 -0.8384502 -2.0313768
N -0.77998126 -1.6402903 -2.820215
H -0.93818456 1.0491194 -1.3116311
H 1.0447181 -1.5828104 1.1942945
H 0.4839268 2.375837 2.6676526
