12

N -1.02734701 0.75755361 0.58733942
C -1.32308423 -0.40092212 -0.41669934
N 1.01956322 -0.00137361 -0.02351683
C 0.43184064 0.82935842 0.70467936
O 0.89787171 1.75322004 1.54782937
C -0.03806774 -0.72174319 -0.70065725
N 0.40341170 -1.65666967 -1.65194853
H -1.48313970 0.56483031 1.47938872
H -1.42237714 1.63057697 0.23387936
H 1.86518993 1.71834831 1.51689327
H 1.07037808 -2.31152379 -1.25987400
H -0.39423999 -2.16165505 -2.01731375
