10

C 0.10196783 -0.034298804 -0.07809809
C -2.1801047 1.0642773 -0.79061204
C -1.1318549 0.5723057 -0.47175846
C 0.48318857 -0.6092862 1.1415141
N 2.29008 -0.30736068 -0.010018929
N 1.3518393 0.19460647 -0.78238636
N 1.8062837 -0.7420413 1.1479312
H 0.52643484 -0.74607754 -1.0487874
H -0.14293146 -0.90978557 1.9704214
H -3.1049037 1.5176609 -1.0782053
