10

C 0.44863412 -0.8750905 0.7807618
C -0.26483777 1.3090057 -0.19987647
C 0.3928224 -0.019487899 -0.40215078
C 0.48947233 -1.552247 1.7671915
N -1.239211 1.4665631 -1.0073398
N -0.45412883 -0.57716 -1.4771734
N -1.3180647 0.24636532 -1.7933695
H 0.02460018 2.0620599 0.5234654
H 1.3955659 0.10522144 -0.8317339
H 0.5251475 -2.1652296 2.6402252
