10

C -0.64298576 0.17230352 2.30844112
C -0.09835184 0.15216436 1.24250465
C -0.37256419 0.42872103 -1.22514479
C 0.53833393 0.14616848 -0.07242812
N -0.34306237 -0.51997835 -2.07680416
N 1.05312098 -1.18457823 -0.45727312
N 0.57267949 -1.51593493 -1.54536219
H -1.12132999 0.18243294 3.26253358
H 1.40035286 0.82616580 -0.08318005
H -0.98619298 1.31253526 -1.35328736
