12

O -0.66110826 -1.4522899 0.88134223
C -0.059844755 -0.22384836 1.2002301
C 0.44520813 0.45540315 -0.072522886
O 1.3267866 -0.42152002 -0.71951586
C -0.7089053 0.77582353 -0.99902105
O -0.7232546 0.37813693 -2.138942
H -0.028411215 -1.9106895 0.30765378
H 0.78592783 -0.34370872 1.8915639
H -0.8187503 0.39582285 1.6900905
H 0.9400387 1.4054426 0.18976429
H 1.0249423 -0.46433818 -1.6429058
H -1.522629 1.4057655 -0.5877369
