12

O -0.32862917 1.7032793 -0.7347128
C 0.26978904 -0.40515956 1.7675232
C 0.42178565 -0.6364657 -0.6091387
O 0.4396887 0.79085267 1.7713679
C -0.6261562 0.3739108 -1.0620593
O 0.195874 -1.1990308 0.7053928
H -0.07645864 1.71949 0.2042228
H -1.6075385 0.049668256 -0.67685777
H -0.67387134 0.32079247 -2.156047
H 1.415562 -0.1793312 -0.6392857
H 0.40327948 -1.5238811 -1.2450271
H 0.1666746 -1.0141251 2.6746216
