11

N 2.35906415 0.17289777 -0.54838107
C 0.44579209 0.84476915 0.98191970
C -1.48654300 -0.04911729 -0.04766420
C 1.41484058 0.55058858 0.14196399
C -0.99408465 -1.22671099 -0.42148932
O -0.89074790 0.95972732 0.64998002
H -2.50604993 0.25272350 -0.27651895
H 2.61441617 0.80983779 -1.29865477
H 0.67514415 1.14859021 1.99664028
H -1.63313202 -1.88420822 -1.00217046
H 0.00130049 -1.57909775 -0.17562568
