11

N 0.51346 0.8079755 -1.7809583
C -1.2011906 0.86340606 -0.027310671
C 0.91209316 -0.9401868 0.18242843
C -0.14999558 -0.418921 0.88818747
C -0.50061417 1.0588522 -1.1777802
O -1.4286704 -0.4654632 0.33843797
H 0.67338437 -1.6865437 -0.5750928
H 1.1292168 0.18519007 -0.9580701
H 1.8707358 -1.0180405 0.68201625
H -0.081136845 -0.0037637595 1.8936694
H -1.7372825 1.6174952 0.5344726
