11

N 0.7392837 1.7379007 2.3390498
C 0.25218529 1.3228624 1.3784701
C -0.3463296 0.7814675 0.14386071
C 0.57852244 -0.11827731 -0.70048654
C -0.40258995 -1.23161 -0.31116882
O -1.240612 -0.3008524 0.40083164
H -0.83442223 1.6027373 -0.39173892
H 0.5933093 0.14034903 -1.7594872
H 1.5967083 -0.22331885 -0.32571197
H -0.9387446 -1.7132002 -1.1332046
H 0.002689479 -1.9980581 0.35958534
