12

N -1.1047564 0.19096379 0.40827617
C 0.045173135 0.75866336 0.033872783
C -1.0118064 -1.238694 0.16289131
N 0.33380353 -1.3793972 -0.37631735
C 0.93305165 -0.18685594 -0.48998946
O -1.9070368 -2.0594203 -0.05072745
N 0.33429393 2.085979 0.34549162
H 0.9668587 2.5282125 -0.3049194
H 0.67139465 -2.2597477 -0.73325676
H 1.966315 -0.06746316 -0.7898153
H -0.5132938 2.6288447 0.44713506
H -0.7139975 -1.0010846 1.3473588
