11

N 1.8474927 -0.109443344 -1.4363289
C 0.5990531 -0.13144135 -0.86853427
N -0.5472325 -0.24339543 -1.4427613
N -1.5008007 -0.07001487 -0.43391487
C -0.83616877 0.09090634 0.6560718
N -1.298608 0.19617085 1.9418457
O 0.5131351 0.07322541 0.47317865
H 2.543364 -0.64593464 -0.93580866
H 1.8052033 -0.35147414 -2.416462
H -0.82237977 0.890951 2.5011995
H -2.3030584 0.30045024 1.9615146
