9

O 0.05506234 1.4591376 -1.7702315
C -0.34886494 -1.058564 0.6754879
C 0.31003627 1.038485 -0.552522
C -0.5072528 -2.250031 0.7316789
C -0.19223699 0.37860394 0.6159698
N 1.2197435 0.9539995 0.30719018
H 0.86497885 1.8477685 -2.1398332
H -0.7662853 0.9403127 1.3539668
H -0.63518095 -3.3097124 0.7782931
