14

C -1.0968888 2.2090125 -1.5029896
N 0.11833407 -0.6591 0.7439974
C 0.921037 -1.7892003 0.901464
O 0.83055615 -0.06957532 -1.3463172
N -0.7472659 1.3174319 -0.2865392
C 0.15314467 0.130612 -0.38032883
N 0.8709263 -2.4350328 1.9855826
H -0.48163682 -0.4370811 1.5301398
H -1.540785 1.4825668 -2.2018275
H 1.4868455 -3.2404258 1.9515771
H -0.32177237 1.9913726 0.34863833
H 1.5420222 -1.9904215 0.027685147
H -1.6254171 1.0429925 0.1542316
H -0.10910019 2.4468484 -1.9253137
