11

N 0.9880233 -0.85098284 -1.5276158
C 0.24837606 -0.22281882 -0.556822
C 0.5872755 -0.27764243 0.8138114
N -0.12037033 0.3808705 1.7030655
C -1.1521891 1.0890228 1.2080959
N -1.5064583 1.1619384 -0.061925486
N -0.7982365 0.4875702 -0.9612667
H 1.5304986 -1.6583871 -1.26954
H 0.54331464 -0.90246516 -2.4316792
H 1.4352224 -0.86006224 1.169553
H -1.7554564 1.6529566 1.9143232
