9

O -2.57360975 0.67810679 0.29559821
C -1.63144808 0.09511396 0.76252097
C -0.29933550 0.04491535 0.09455210
N 1.19039859 0.44336335 -1.43054383
C 1.65811584 -0.28362167 -0.45760342
N 0.75699950 -0.56639295 0.53614729
O -0.12360081 0.66875449 -1.06846137
H -1.66091687 -0.45402338 1.71970266
H 2.68339678 -0.62621597 -0.45191259
