9

O 1.5339639 0.053339183 -0.95114017
C -1.1674266 -1.3021995 -0.697561
C -0.6283883 -0.2318635 -0.17742182
N -0.2534343 0.5517996 0.7815184
C 0.90549964 1.1136627 0.8564212
N 1.884929 0.90747434 -0.14404179
O -1.4255264 -2.2637985 -1.3447137
H -1.9881619 -0.6395155 0.025150543
H 1.1385447 1.811101 1.6517884
