12

N -0.45233953 -0.44988135 1.9192376
C -0.13872795 -0.13270266 0.60209036
C -0.9257523 0.72290033 -0.17495042
N -0.5965958 1.0819792 -1.4112988
C 0.53858894 0.58212715 -1.8939067
N 1.3661203 -0.24639773 -1.2581257
C 1.0227193 -0.5969922 -0.024331205
H -1.4312606 -0.38356006 2.159725
H -0.039570574 -1.3056346 2.2630422
H -1.854412 1.1310817 0.22339414
H 0.8158495 0.8742556 -2.902938
H 1.6953808 -1.2771754 0.49806166
