12

N -0.6138665 -0.038230114 -1.3120617
C -0.15063809 -1.2285515 -1.4520206
C 0.6305777 -0.8277898 0.4787237
N 0.56439704 1.5930502 0.09961027
C -0.18291435 0.35665473 0.024111023
N 0.6156035 -1.7722664 -0.3909418
C -1.410854 0.70669115 0.8205415
H -0.3149348 -1.8259068 -2.3438904
H 1.3176197 1.5821052 0.7705228
H -1.5479432 -0.018814592 1.6482491
H 1.1386371 -0.92113304 1.4374101
H -0.04568423 2.3941905 0.21974628
