12

N -1.2800249 0.5524628 -0.17971888
C -0.91279674 -0.6417494 0.15141012
N -1.7909465 -1.6800965 0.363402
C 1.1849283 1.6200179 0.39963838
C 1.2691251 0.1578004 0.06382998
C 0.8526351 1.2977542 -0.8226127
N 0.38746545 -0.83909047 0.47218418
H -2.643742 -1.640265 -0.16772452
H 2.2754283 -0.26667422 -0.010209092
H -1.3357764 -2.573029 0.4071989
H 0.5828117 1.6357303 -1.8097107
H 1.4108925 2.377139 1.1323124
