9

N -0.26389235 0.03908455 -2.22174056
C 0.25614773 -0.02405597 -1.06803515
N -0.56204964 0.07756657 0.06931545
C 0.00291178 -0.00609132 1.20013129
O -0.68362088 0.07258871 2.34113358
H 1.33660593 -0.15749735 -0.88496067
H 0.45999262 -0.05162155 -2.93039571
H 1.07008240 -0.14579622 1.39682995
H -1.61617742 0.19582259 2.09772148
