10

O 0.022937723 0.3261612 2.0205894
C -0.025333872 0.12017709 0.6880908
C 0.89036256 -0.28712025 -0.2551325
C 0.14458823 -0.28097752 -1.4593233
N -1.1083422 0.093447775 -1.2793041
N -1.1913766 0.33567604 0.048879754
H 0.91379136 0.13374718 2.3343766
H 1.9275521 -0.54711443 -0.10084231
H 0.48617658 -0.5388144 -2.4518294
H -2.0603557 0.6448175 0.45449558
