10

O 1.76071053 -0.54573691 1.18470824
C -0.93528220 0.00390541 -1.02224129
C 0.70826416 -0.30098740 0.36620935
C 0.27848263 -0.82814443 -0.81783258
N -0.14562954 0.71740872 0.81063042
N -1.13995785 0.97850505 0.07242772
H -0.01937139 1.24583735 1.67054980
H 2.25290010 -1.26570531 0.76738320
H -0.90289570 0.58503067 -1.95311075
H -1.85722056 -0.59011298 -1.07872360
