9

N 0.74369115 1.1421716 0.64891577
C -0.61376643 0.59570086 0.5296197
C -0.45264798 -0.6060503 -0.33339494
C 0.8503834 -0.66116726 -0.62111145
N 1.542825 0.4293693 0.0024392866
H -1.2644129 1.3683989 0.10249747
H 1.4177974 -1.3649657 -1.2164146
H -1.2370248 -1.2806357 -0.64966303
H -0.986845 0.37717834 1.5371118
