10

N -1.0493848 0.26307634 0.36177605
C -0.6599406 -0.96857005 -0.10040795
C 0.66818017 -0.8865181 -0.43882287
C 1.0936341 0.44606164 -0.16983877
C 0.011028458 1.1296188 0.32310683
H -1.9736997 0.49488232 0.68182456
H -1.3574426 -1.7920219 -0.14797908
H 1.2758747 -1.6876961 -0.8355612
H 2.08574 0.84692967 -0.32378465
H -0.09398977 2.1542373 0.64968705
