10

O 0.032559797 -2.5547397 0.51332474
C -0.23952706 -1.991569 -0.51247996
O -0.23638147 -0.66615593 -0.6981315
C 0.13444789 0.09527157 0.4635828
C 0.10211193 1.5119159 0.11156384
C 0.08920397 2.687444 -0.1352428
H -0.5316339 -2.4858963 -1.4500244
H -0.5640325 -0.12496256 1.2777078
H 1.1361309 -0.20348756 0.7899595
H 0.077120416 3.7321799 -0.36026013
