11

C -0.78723855 1.56955285 -0.27148043
N -0.37176321 0.35975367 -0.08703762
C -0.26019253 -1.74425084 0.13575578
N 0.99448482 -1.46899565 0.28562070
C 1.05411739 -0.04140769 0.15620596
N -1.15388046 -0.73751490 -0.08795863
H 1.41117363 0.44335892 1.07051191
H -0.06055071 2.37397974 -0.25176106
H -1.84492986 1.72881769 -0.43678022
H -0.64572313 -2.75917994 0.18175341
H 1.66450238 0.27588600 -0.69482981
