11

C -1.5484167 0.47499818 -0.3683997
N -0.326588 0.25733507 0.25739726
C 1.6948912 0.27889195 0.65371835
N 1.5879946 -0.8211662 -0.075899236
C 0.22234309 -0.9205838 -0.27171248
N 0.5605487 0.9847731 0.9047602
H -0.2161575 -1.8351401 0.13870616
H -0.8208418 -0.84068793 -1.1083312
H 2.640646 0.64800346 1.032011
H -1.4588214 0.83730656 -1.3886218
H -2.335598 0.9362696 0.22637132
