10

O -0.52375907 0.019446567 1.9676561
C 0.243204 -0.3778239 -1.4192896
C 0.31125286 -0.9433253 -0.16212732
C -0.11338803 0.10432396 0.6825418
N -0.16383901 0.9096476 -1.3853801
N -0.43142477 1.2385905 -0.12815242
H 0.7062433 1.0633994 0.537926
H 0.4955769 -0.8318536 -2.3690686
H 0.60483164 -1.9378393 0.13658375
H -1.1286978 0.7554342 2.1393104
