10

O -0.7699843 -1.1537206 -1.4260182
C 0.1584725 -0.37406772 -0.743293
C 0.22274107 0.8143626 1.1765596
C 0.21482915 -0.44594204 0.7540565
N 0.011442454 1.0742997 -1.007442
N 0.10173229 1.7182566 0.06079478
H 1.1436327 -0.6347647 -1.1564851
H 0.28504172 -1.3574779 1.3311018
H 0.28898212 1.2339092 2.1717343
H -1.6568897 -0.87485504 -1.1610084
