10

O -0.33714038 1.2454606 -1.5370965
C -0.2006077 0.55570966 -0.38960025
C -0.25858986 -1.0989741 0.84221876
C 0.89386165 -0.20632844 0.31858504
N -1.1278028 -0.22200917 0.117942914
H -2.1232634 -0.27688184 -0.07510904
H 1.4678178 0.33957475 1.0727608
H 0.53477526 1.4598037 -1.8908892
H 1.576547 -0.7144362 -0.3808559
H -0.42559755 -1.0819191 1.9220434
