10

O -0.6110007 2.0065968 0.26455957
C -0.28658056 0.7745819 0.38668397
C 0.9200732 0.29994428 -0.19976439
C 0.17449595 -1.0565809 -0.21259564
N -0.9505519 -0.39506754 0.54213375
H -0.16638869 -1.3940396 -1.196169
H 0.6261004 -1.8788494 0.34704852
H -1.9336852 -0.48408455 0.31247705
H 0.34128323 1.7236161 -0.5297732
H 1.8862543 0.40388307 0.28539938
