11

O -0.18664978 -1.85750192 -0.01622158
C -0.55981216 -0.52378798 0.18500464
C -0.24680277 0.41008975 -1.00818963
N 0.57494141 1.20068099 -0.08912817
C 0.45938218 0.33708502 0.96329191
O 0.99335991 0.25652697 2.04093759
H -1.58724657 -0.42171028 0.55963056
H 0.10038639 -2.20960624 0.83754089
H 0.32026952 -0.09981650 -1.79156462
H -1.09497108 0.95486604 -1.42810384
H 1.22714300 1.95317374 -0.25319806
