12

N 0.22304323 -0.9133938 0.35814226
C -0.27651674 -0.6659888 -0.92176867
N -0.21877213 1.2373286 0.19979157
C 0.40685964 0.295871 1.0198677
O -0.43592015 -1.6731992 -1.8129866
C -0.55819786 0.63572323 -1.0387949
N 1.0247405 0.39164683 2.132278
H 0.06429032 2.2021856 0.25816825
H 0.80494475 -1.6978856 0.6078855
H 1.0422533 1.3499539 2.464477
H -1.051034 1.1742212 -1.8328089
H -1.0256907 -2.3364632 -1.4342512
