10

O 0.99660194 1.12150016 -1.09444509
C 0.96279517 -0.08389677 -1.03221080
O -0.93419814 2.51788188 0.88862973
C 0.08672211 -0.84132963 -0.07372294
C -0.73717272 0.04717509 0.81599741
C -0.79400878 1.36635053 0.79636232
H -0.54094741 -1.51370522 -0.67655259
H -1.37548741 -0.40740108 1.56844412
H 0.74329703 -1.50336198 0.50860445
H 1.59239804 -0.70321269 -1.70110647
