12

N -0.19314656 1.47592209 0.75165523
C 0.08444246 0.24367091 0.01703889
C -0.47028542 -1.06099803 0.44119719
N 0.41165160 -1.98430174 0.28583186
C -0.74410317 1.32392221 -0.58027033
N 1.40908430 -0.03200360 -0.43870123
C 1.53096371 -1.29007055 -0.25091008
H -0.89921633 1.31485451 1.46404865
H -1.46596032 -1.23769657 0.83567727
H -1.81004178 1.13655940 -0.70258381
H -0.28784355 1.95240242 -1.33976021
H 2.43445546 -1.84226122 -0.48322343
