10

N -2.0607967 0.3287509 0.24723284
C -0.8168741 0.321446 0.26177263
O 1.0489085 -0.19275375 -0.9876622
C 1.0926554 -0.7900454 0.14599572
C -0.11865433 0.7722994 -0.9514433
N 0.20831545 -0.40942562 1.0528241
H 0.047849055 -0.9316557 1.9004098
H -1.5688394 0.7348567 -1.0614032
H 1.8108455 -1.5916591 0.29170296
H 0.3565907 1.7581866 -0.8994296
