10

N 0.5071733 -0.8575925 0.2635273
C -0.73279774 -0.19463798 -0.046484947
O 1.0984658 1.1660395 -0.13062942
C -0.28563383 1.1057197 -0.30386832
C 1.5133355 -0.009200938 0.19501758
N -1.8235548 -0.8923926 -0.013722966
H 2.5615196 -0.19842343 0.3689787
H -0.76770866 2.031747 -0.56490993
H 0.54662794 -1.8390399 0.4956427
H -2.617427 -0.31221884 -0.26355064
