9

O -1.9938906 -0.034490574 0.7267481
C 1.2054164 0.8145239 -0.5204802
N -0.29858214 -1.2807267 -0.50551426
O 0.67755145 1.2923603 -1.4952043
C 0.5809673 -0.2734804 0.29147905
C -0.84255046 -0.45074615 0.25644165
H 1.1803898 -0.68483096 1.1027933
H 2.1986678 1.1566105 -0.1625729
H -2.7079692 -0.53921986 0.30630943
