9

O 0.05600242 1.26761253 -1.65979794
C -0.50676310 -0.79410605 0.30234500
N 0.46368766 -1.29403198 -0.30892044
O -1.74774960 -0.99761173 0.67460692
C 0.60517865 0.11192000 0.34424877
C 0.65255337 1.26051706 -0.61044923
H -2.04838087 -1.84919370 0.31984282
H 1.24457419 0.17921900 1.22367564
H 1.28089712 2.11567494 -0.28555177
