9

O -1.2536224 0.03575537 -1.6169823
C -0.5104365 -0.131635 -0.513741
N -0.676836 -1.1463419 0.28827995
O 0.25555018 -0.97781324 1.2960362
C 0.9495042 0.14156239 1.0561899
C 0.5267195 0.74517465 -0.07958319
H -1.8805815 -0.7009027 -1.6666223
H 1.7136116 0.38128942 1.7807548
H 0.87609076 1.6529111 -0.5443323
