12

N 0.9683529 1.1871144 -1.6735837
C 1.2122952 0.26872385 0.70352733
N 0.734686 -0.90685135 0.65941226
C -0.1375324 -1.574908 -0.050757423
C 0.7341659 1.3736832 -0.17362192
C -0.20433664 1.1100197 -1.2432601
N -1.3637632 -1.6782572 0.46708068
H -2.0368538 -2.2636187 0.0017658719
H -1.6594504 -1.2484543 1.3388191
H 0.9005133 2.3828318 0.20284961
H 2.0508542 0.46161777 1.3691956
H -1.1989313 0.88809925 -1.6014271
