12

C 1.7294035 0.65433043 0.55063045
C -1.7321012 -0.51851565 -0.9017691
C 0.3962614 0.14522617 0.055688005
O 0.013936496 0.45294484 -1.1091187
N -0.42799574 -0.5796043 0.7445777
H -2.0831969 -1.4425039 -0.45335487
H 1.6423976 1.7213258 0.7777496
H 2.4779892 0.54164165 -0.23715118
H -0.20714244 -0.8570206 1.6952564
H -2.2961814 0.35693341 -0.60278946
H 2.058368 0.12896831 1.4514022
H -1.5717384 -0.6037262 -1.9711212
