12

C 1.4000357 -0.29372957 0.8827371
C 0.33592114 -0.50514287 -0.18715738
C -0.5906503 0.6956674 -0.31771117
O -0.2250586 1.8367319 -0.1081303
N -1.8653553 0.3993197 -0.70278716
H 2.1137278 -1.1229024 0.8895274
H 1.9422057 0.6376762 0.69983244
H 0.9506323 -0.22460319 1.8787775
H -0.24751416 -1.4131413 0.011609858
H 0.8117525 -0.64741176 -1.1666828
H -2.1393282 -0.530419 -0.9689569
H -2.4863687 1.1679549 -0.9110584
