12

C -0.08291109 0.67886883 0.061554693
C 0.7792977 -0.39465952 0.6634178
C -0.6888843 -0.35248083 0.98500234
O 1.2763922 -1.3775059 -0.18664801
N -0.3288322 0.48439726 -1.3492167
H 0.014597649 1.6952561 0.44774485
H -1.2795414 0.72510016 -1.6035327
H -1.0166665 -0.028627433 1.9665868
H 0.3037412 1.0480917 -1.9079535
H 0.83147526 -1.2203258 -1.0388852
H 1.4878882 -0.13441184 1.4435697
H -1.2965566 -1.1237028 0.5183601
