10

N -1.4363431 -0.29525945 0.99295086
C -0.7396648 -0.5331905 -0.10019751
C 1.3935522 0.70372856 -0.05356028
N 0.45656383 0.5559704 -1.043976
C -0.12295027 -0.77527237 -1.1907669
O 1.3910517 0.19670679 1.0618331
H 2.1717508 1.4241936 -0.35353917
H -2.2744968 0.26575738 0.89208543
H 0.015384561 -1.4866623 -1.9928029
H -0.854848 -0.055972002 1.7879734
