10

N -1.07489182 0.79655382 1.25080903
C -0.14327163 0.75866468 0.25873811
C 0.76557040 -1.43028386 -0.42481367
N -0.31617441 -0.41111264 -0.55427550
C 0.87679417 -0.63111014 -1.41509014
O 0.69636023 1.60323302 0.04428464
H -1.86477577 0.17271214 1.20113313
H -1.15769042 1.65537637 1.76955827
H 0.95664752 -2.28137909 0.20550541
H 1.26143180 -0.23265459 -2.33584910
