17

C -0.24158337 2.32704416 0.28722345
N 0.09747789 1.22978778 -0.59413416
C 0.09140033 0.05220281 -0.10251886
O 0.45916170 -1.01364771 -0.83325181
N -0.24120946 -0.31673229 1.18150673
C -0.50411132 -1.69579543 1.54479684
C 0.86754373 -0.72366319 -2.16438353
H -0.76506414 0.37937402 1.68258070
H -1.27689736 2.26610711 0.66148332
H -0.15771502 3.26056169 -0.27532807
H -1.41179850 -2.09953708 1.07953578
H 0.34123671 -2.31984443 1.24943150
H -0.60647092 -1.74897628 2.63172334
H 0.43084389 2.40170314 1.15538412
H 0.05655041 -0.25674559 -2.72971420
H 1.73106550 -0.05187247 -2.17412220
H 1.12956943 -1.68996597 -2.60021342
