15

N -0.5307477 -0.93386674 0.27679682
C -1.2646035 -0.10453772 -0.6770806
O 0.7388054 1.2364992 -0.5513444
N 1.4036264 -0.8583574 1.5502776
C -0.20791434 0.7516177 -1.430173
C 0.34214824 -0.2098032 1.0309937
O -0.012029386 0.9248706 1.5946265
H -0.17141815 -1.7926652 -0.1088301
H 0.1907634 1.4899471 0.7251701
H -1.8590506 -0.7589796 -1.323232
H -0.75614923 1.5460798 -1.9643633
H 2.0131228 -0.2895649 2.1164086
H 1.804952 -1.6462584 1.075164
H -1.9499017 0.53122085 -0.10751447
H 0.25839615 0.1137982 -2.2068996
