17

C -1.00114353 1.83185241 -0.94544408
N -0.50608475 0.81033767 -0.04147429
C -0.43536197 1.13606719 1.37304377
O -0.23044775 -0.68756982 -1.74564278
N 0.57721769 -1.22211092 0.32061180
C 1.20725561 -2.42637073 -0.19220165
C -0.05376147 -0.37717141 -0.57267431
H -1.25426268 1.82153451 1.61586806
H 0.51016093 1.62613195 1.64981654
H -2.02014955 2.13172087 -0.67262081
H -1.00715843 1.41866344 -1.95383798
H 1.45064122 -3.08691551 0.64368593
H -0.56835084 0.23677915 1.98217424
H 1.07130842 -0.78094022 1.08000149
H -0.36064001 2.72455103 -0.91967034
H 2.11822595 -2.22016274 -0.76965628
H 0.50255126 -2.93639730 -0.85197901
