17

C 0.76982635 -2.5994658 0.1784019
N 0.34582442 -1.2482458 0.5018118
C -0.63929135 1.8318999 -1.2195432
O -0.29856497 -0.8657389 -1.653627
N -0.35544965 0.8714556 -0.1694396
C -0.102928035 -0.43574756 -0.52214396
C -0.26811624 1.3666776 1.1940452
H -1.5974272 2.3338869 -1.0386796
H -0.9611302 2.2072437 1.3063294
H 0.88815147 -0.79966825 1.2229841
H -0.6894528 1.294624 -2.1663473
H -0.5729195 0.59259397 1.904914
H 1.7184405 -2.629738 -0.37391806
H 0.74042934 1.721946 1.453661
H 0.005421859 -3.0662587 -0.4459631
H 0.1463031 2.5984378 -1.2750489
H 0.87088287 -3.1739023 1.1025633
