12

C 1.0747056 0.19377309 0.780548
C -0.31587952 0.5928415 0.35101
N -1.018679 1.5466338 0.80743206
N -0.9070885 -0.17306116 -0.6644329
C -0.39446422 -1.24767 -1.3399388
O -0.99514675 -1.8413607 -2.2054634
H 1.4162635 0.8617259 1.5749935
H 1.7841089 0.25961003 -0.051000025
H 1.0934451 -0.8317599 1.1638669
H -0.5194249 2.0482497 1.5359596
H -1.8425219 0.118410096 -0.92868817
H 0.6246819 -1.5273927 -1.0242866
