10

O -0.2407075 -0.17393765 2.0271053
C -0.10785054 -0.035923354 0.69019806
C 0.7024764 -0.6161292 -0.25946087
C 0.29392427 0.009020833 -1.4643326
N -0.6724123 0.8874893 -1.276209
N -0.904909 0.8454385 0.054233763
H 0.3975535 -0.8278672 2.334878
H 1.4649429 -1.3652967 -0.11001407
H 0.6776541 -0.15748127 -2.4612012
H -1.6106719 1.4346867 0.464802
