10

O 1.1514403 0.01214819 -1.7066185
C -0.57202077 -0.0035210622 1.3664895
C 0.5628969 0.012958861 0.63021463
C 0.16726886 -0.0061345007 -0.7765201
N -1.065444 -0.036318082 -1.096029
N -1.8119822 -0.02935909 1.4227334
H -1.1962444 -0.041956827 -2.103929
H 2.015132 0.05126369 -1.2759492
H -0.8173297 0.0016430377 2.5184696
H 1.5662831 0.039275784 1.0211388
