13

C -0.4433731 -0.69297886 0.14890969
C 0.41510224 1.6391841 0.5384495
O -1.1651039 -0.66201997 1.3070378
C 0.25572506 0.37442216 -0.24383941
O 0.84092265 0.31289405 -1.5045658
N -0.5201315 -1.8950726 -0.56531173
H 0.17549562 2.503525 -0.09123011
H 0.007169328 -1.8086385 -1.4261178
H -0.23951815 1.638202 1.4100273
H -1.0793066 -1.5316174 1.7208012
H -1.477545 -2.1509979 -0.7873264
H 1.4488971 1.7629613 0.8920976
H 1.7816664 0.51013666 -1.3989319
