10

C -1.48324984 0.67603306 2.23006005
C -0.89230757 0.35721256 1.23648348
C -0.14536886 -0.00367802 0.07130037
C 1.21005991 0.23512365 -0.20816685
N 1.48769749 -0.27364338 -1.40268232
N 0.33115218 -0.78058544 -1.78537176
N -0.68366190 -0.65776608 -0.96135682
H 0.23557779 -1.24238420 -2.67545895
H 1.95996238 0.73470144 0.38494015
H -2.01986184 0.95498631 3.11025246
