11

N 0.6182307 -1.5333155 -1.3908504
C -1.0356733 -0.8634708 -0.1210905
C -0.77597725 1.0454473 1.1145474
N -1.5809788 -0.040041 0.7217612
C 0.3537504 -0.5704988 -0.5713508
C 0.46979415 1.2916507 0.70060116
O 1.1050634 0.43785462 -0.20889497
H 1.4808141 -1.660402 -1.9078746
H -0.52474374 -1.9557987 -1.1409582
H 1.1137241 2.1121492 0.98095304
H -1.2240039 1.7364249 1.8231566
