11

N 1.616127 -1.5981739 0.6433689
C 0.7562699 -0.7350583 0.30483553
C 0.8575772 0.6725294 0.7369761
N 0.023345718 1.5923471 0.43041396
C -1.0562344 1.2040421 -0.37986025
C -1.2049024 -0.050823044 -0.80442864
O -0.32618678 -1.0415747 -0.4846123
H 1.3964334 -2.5168207 0.2626608
H 1.7158355 0.911077 1.3615333
H -1.7660015 1.9775298 -0.64434826
H -2.0122638 -0.41507456 -1.4265391
