11

N 1.54858412 -1.21598847 0.81644581
C 0.70631969 -0.35252520 0.28241835
C 0.86892563 1.09203723 0.61370867
N -0.15554120 1.80944060 0.22836561
C -1.25178500 1.23088958 -0.41828070
C -1.24601816 -0.02765464 -0.86655040
O -0.19263881 -0.86405244 -0.54038057
H 1.51944520 -2.19982960 0.60224106
H 2.28144776 -0.82323712 1.38866175
H -2.10033962 1.87742456 -0.61905276
H -1.97839979 -0.52650429 -1.48757678
