11

O -0.24011841 1.84037 2.0036101
C -1.1279142 0.19600193 0.56091225
C -0.05589733 1.0415679 1.1107566
C -0.8699791 -0.66863954 -0.4302019
N 1.2352599 0.8769813 0.5352029
C 1.3916076 0.025413621 -0.40799233
N 0.40637293 -0.7671952 -0.9328601
H 0.6203666 -1.4075861 -1.677621
H 2.373558 -0.114718296 -0.85907084
H -1.612311 -1.3184594 -0.8828277
H -2.1209452 0.29626387 0.980092
