11

O 0.52699143 2.12526066 1.63236607
C 0.35181186 1.20748024 0.86022568
C -0.66698865 0.16677721 1.07356470
C 0.92451148 0.10544197 -1.11258074
N -0.01934216 -0.86959310 -0.93133732
C -0.82153294 -0.82457461 0.18486887
N 1.13965919 1.08670884 -0.31881997
H -1.28052655 0.22979728 1.96321317
H 1.51935608 -0.00338404 -2.01903105
H -0.12059475 -1.60319669 -1.61114338
H -1.55334507 -1.62071798 0.27867374
