11

C -1.2546866 0.99290144 0.1992655
N -0.5340821 -0.7494804 0.34424376
C 0.7697122 -0.9170904 0.64039946
C 1.4830196 -0.61130065 -0.5093459
N 0.63376546 -0.20628805 -1.4639051
N -0.5834286 -0.3128606 -0.9652069
H 2.545114 -0.68822294 -0.69775563
H -1.0893004 1.1218635 1.2683871
H -2.2997541 0.84444463 -0.045110047
H 1.1033951 -1.2495317 1.6118397
H -0.7737547 1.7755653 -0.38281205
