11

C -1.3068663 -0.78724825 0.6808656
N -0.12750143 -0.052239884 0.26560596
C 0.39642483 0.10091248 -0.9722732
C 1.4874581 0.9036457 -0.7689521
N 1.5703112 1.1911663 0.5565599
N 0.5955722 0.61356705 1.17532
H -1.365549 -0.70570916 1.765892
H -2.204311 -0.35418913 0.23128547
H -1.2194047 -1.8389813 0.39601916
H -0.03228018 -0.3569119 -1.8511368
H 2.2061462 1.285988 -1.479186
