9

O 0.837973 -1.722565 -0.6247992
C 0.27486962 -0.57310545 -0.21469447
N -0.65885353 0.0699312 -0.8968378
N -0.9063696 1.1241138 -0.12521957
N -0.2145274 1.2122844 0.9902148
C 0.5610839 0.13108331 0.9672223
H 0.43990725 -1.9618545 -1.4706717
H -1.5940825 1.8143657 -0.38246197
H 1.2599994 -0.094253786 1.7572474
