9

O 0.45112455 -0.8906004 1.5687959
C -0.69456667 0.5959999 -0.04642748
N 2.2106156 -0.7283791 -1.2267759
N -0.75451684 1.1548871 -1.1930993
N 1.3539522 -0.5360205 -0.5037474
C 0.3659128 -0.32002917 0.32235718
H -1.4075981 0.7336638 0.7772623
H 0.046950214 -1.769263 1.5447884
H -1.5718739 1.7597417 -1.2431536
