9

O 1.14706428 -1.39504397 -0.44260488
C 0.24245058 -0.36306341 -0.38681747
N -0.88860972 0.25071560 -2.46370681
N -0.77542304 1.41629540 0.84815801
N -0.35904854 -0.03347621 -1.49807531
C 0.03925472 0.43377214 0.80628463
H 0.68863687 -2.22958889 -0.27125641
H -0.76325829 1.83926754 1.77410276
H 0.66893328 0.08112147 1.63391526
