11

C 0.24951512 1.2316873 1.2634387
C 0.01065668 -0.1588406 0.39247933
C -0.08183485 -0.1989254 -0.949682
N -0.3155385 -1.530598 -1.470998
N -0.43688065 -2.551587 -0.8293027
N 0.025055947 -0.5493289 1.5704728
H 0.34888858 1.2368003 2.347954
H 1.1845978 1.5756658 0.8195572
H -0.36893436 -1.5068413 -2.5113945
H -0.6315501 1.8067573 0.98105776
H 0.016024332 0.6452106 -1.613583
