11

C 0.11298225 1.3870527 1.6562799
C 0.317638 -0.5463635 -1.3519901
C 0.56683075 -0.036953565 -0.16489302
N -1.2560788 -2.1607165 -0.552343
N 0.8640868 0.3660704 0.94184923
N -0.58420974 -1.687428 -1.4428542
H 0.74388313 -0.15594168 -2.2656136
H -0.31066528 0.9229274 2.551109
H 0.8122386 2.1645353 1.9771708
H -0.5774689 -2.0814457 -2.4060066
H -0.6892368 1.828263 1.0572909
