12

C 0.87847334 0.7376618 0.026909841
C 0.59731525 -0.69284725 -0.17580684
N 0.3292166 0.27925062 -1.2563651
N -0.20316991 0.89528376 0.9813453
C -0.6118652 -0.52306724 0.75403523
O -1.8567045 -0.74219084 0.17997345
H 1.8107154 1.2869358 0.086681485
H 1.0798931 0.19762702 -1.9418766
H -0.56896096 -1.0959613 1.6816521
H -1.793543 -0.37057918 -0.7131615
H 1.2456782 -1.5476391 -0.32246292
H -0.90704864 1.575526 0.69907564
