11

N -0.46797945 0.64257363 2.01982175
C 1.25436758 -0.25488999 -0.52128477
N -0.01672057 1.30229984 1.10917237
N -1.00701771 -1.51916256 -0.67950214
C 0.24464357 0.80610812 -0.28504786
C 0.00177227 -0.62343419 -0.49387913
H 2.29938746 -0.46966408 -0.64034420
H 0.22204893 2.31312234 1.20558146
H 0.01596548 1.59360618 -1.00921251
H -1.82116138 -1.30398330 -0.11900525
H -0.72530621 -2.48657575 -0.58629956
