11

N 0.07311152 -1.5078653 -1.2266458
C 1.3343787 0.35288075 0.07108704
N -0.9794966 0.8388155 1.1240563
N -1.3953463 -0.16826084 1.6541712
C -0.04441241 0.886735 -0.05139628
C 0.4503396 -0.41438696 -0.50800365
H -0.3126145 1.7209284 -0.7064156
H -0.8948769 -1.756455 -1.0701518
H 0.691285 -2.3028612 -1.1277548
H 2.3330958 0.55385834 0.40952724
H -1.2554641 1.796611 1.4315257
