11

N 1.4748676 0.37068665 1.3594086
C 0.43658692 0.2012957 0.44104573
N -0.28087863 1.2320102 0.028793195
N -1.2156819 0.68475676 -0.77674705
C -1.0985026 -0.6542267 -0.8927133
C -0.028035982 -1.0216922 -0.109274544
H 2.2858074 -0.19663128 1.1533183
H 1.7313945 1.3442837 1.4475513
H -1.8915213 1.2893572 -1.2108017
H -1.7732762 -1.2359455 -1.5027447
H 0.35924017 -2.0138943 0.06216434
