10

C -0.9339196 0.3770934 2.3686163
C -0.47345436 0.2107385 1.2680672
C 0.066252254 0.008605434 -0.034345023
C 1.342655 0.119866304 -0.5503011
N 1.3062913 -0.1983894 -1.867598
N 0.088282846 -0.4989887 -2.2007337
N -0.66667086 -0.37879878 -1.1112425
H -1.3331579 0.5263074 3.3488882
H 2.259121 0.40385297 -0.055481896
H -1.6554002 -0.5702872 -1.1658696
