10

C -1.12066502 0.39589108 2.41806753
C -0.14846824 0.36416080 1.53605809
C 0.01922771 0.03584173 0.14161859
C 1.11763434 0.05394648 -0.69684236
N 0.73434928 -0.34127238 -1.93624138
N -0.53322861 -0.60763432 -1.92634528
N -0.97931541 -0.38790041 -0.68616527
H -1.95593326 -0.54501502 -0.48094575
H 2.13958033 0.32741977 -0.47828758
H 0.72681836 0.70456221 2.10908329
