10

C 0.58125657 -0.45645687 1.7181153
C 0.2686069 0.031034522 0.28877348
C -0.3649077 -1.229192 1.4046614
C 0.645315 -0.3686561 -0.99214774
N 0.27148482 0.5846527 -1.8770555
N -0.3267588 1.5460355 -1.2446885
N -0.354179 1.2198082 0.053356294
H -1.1539577 -1.9294162 1.2161319
H 1.1544918 -1.2704712 -1.2949653
H -0.7213519 1.8726615 0.7278186
