10

O 0.976167 0.08232015 1.6257313
C -1.0982802 -0.28251326 0.51189584
C 1.4575297 0.13466577 -1.7917786
N -1.8261112 -0.3071883 -0.5309292
C 0.33552 0.009877026 0.426823
N 0.9208969 0.19511086 -0.6801654
H -1.4373666 -0.47702408 1.5345514
H 1.5261439 1.1120102 -2.2901583
H 1.9290752 0.08082257 1.4759132
H -2.7835746 -0.54808104 -0.2818833
