10

N -0.06464782 -0.71352546 -0.14233414
C -0.60372921 1.08325886 1.38546685
O 1.63145734 0.01817736 -1.48492016
C -0.68417620 0.58655064 0.00229267
C 1.09191000 -0.86374222 -0.85773790
N -0.55942961 1.45172430 2.47800710
H -1.73561347 0.56268250 -0.30165937
H -0.40616233 -1.49123990 0.40203707
H -0.14377303 1.26564620 -0.66261344
H 1.47416448 -1.89953207 -0.81853838
