10

N -1.3184248 -0.64220047 -1.1624779
C -1.208731 -0.7481839 0.08975191
O -0.18079488 -0.21519412 0.7756108
C 0.7671927 0.47543025 -0.03167151
C 1.8217136 0.98209023 0.8523942
N 2.6767385 1.4027797 1.5098574
H -2.1620767 -1.11196 -1.4856365
H -1.879243 -1.2525222 0.7918022
H 0.28674582 1.3062142 -0.55904275
H 1.1968799 -0.19645347 -0.78058755
