12

N 0.90353465 -0.74953634 -0.7214145
C -1.1694232 0.18672271 0.118767984
C 0.32988858 -0.0167387 0.4025546
O -1.7665447 -1.0515981 -0.13749784
C 0.9955814 1.2752843 0.6730268
N 1.5279279 2.2869573 0.8350206
H -1.1354264 -1.5369177 -0.6925941
H -1.2761849 0.8829199 -0.72942156
H 1.0124209 -0.13646775 -1.5248834
H 1.8193079 -1.1246135 -0.4999062
H -1.6671964 0.63259053 0.983407
H 0.42611477 -0.6486026 1.2929406
