12

N 0.89381476 -0.58510524 -0.87026747
C -1.15339047 0.27448728 0.10425462
C 0.28846544 -0.18028052 0.39426323
O -1.83510292 -0.74291789 -0.57088948
C 1.04177134 0.87532288 1.10409225
N 1.64721484 1.71619795 1.61348830
H 1.13190141 0.23195561 -1.42614326
H -1.20255957 -1.09953332 -1.21485503
H -1.68585348 0.48139247 1.03583944
H 0.24402545 -1.06611534 1.03817351
H 1.74711478 -1.11435085 -0.72825478
H -1.11740136 1.20894673 -0.47970120
