10

O 1.1696318 0.6100447 -1.770225
C -1.0587304 -0.05802787 0.8055057
N -0.71559745 0.5475037 -0.40218407
C 0.5591684 0.17353158 -0.6571447
C 0.048242778 -0.75284773 1.1800163
N 1.0685139 -0.6044593 0.25392103
H 0.18597746 -1.3587596 2.0649934
H 2.0580735 0.22632194 -1.748598
H -1.28452 1.1448872 -0.98031473
H -2.03076 0.07180535 1.2540305
