9

O 1.0079633 -0.94557506 -1.5011692
C 0.30926123 -0.34953773 -0.5204543
C -0.9412285 -0.6224777 -0.07838286
O -1.1981413 0.26623338 0.94028115
C -0.09069457 1.0055121 1.0372981
N 0.84550095 0.693927 0.19963816
H 1.8659647 -0.5017673 -1.5426997
H -1.7193402 -1.3256218 -0.32494518
H -0.07928541 1.7793071 1.7904338
