9

O 1.5923908 -0.17503183 1.0349572
C -0.16851272 1.1548734 0.0063288817
C -1.4115185 -0.5199926 -0.76406324
O -1.2688551 0.8323022 -0.7363809
C 0.4503381 0.008711086 0.3565743
N -0.34020847 -1.0515057 -0.07883519
H 0.021668848 2.1961198 0.21505149
H -0.54113543 -1.3301389 -1.276175
H 1.6658326 -1.1153373 1.2425427
