11

N 0.07410983 -1.0365896 -1.6232153
C 0.93537253 0.17313842 0.3859602
C -1.0337663 0.76319075 1.0929164
N 0.24937828 0.86994565 1.4774147
C -0.06476519 -0.32639134 -0.45466238
N -1.2787842 0.044995494 -0.0020671058
H 1.9776843 -0.097313546 0.49322206
H -1.8222053 1.2510594 1.6535474
H -0.781534 -1.4781679 -1.9254565
H 0.8876129 -1.6265291 -1.6981673
H 0.85689706 1.4626616 0.6005077
