14

C -0.27963176 0.21160983 -1.763967
N 0.00035852974 0.12525772 1.3240596
C 1.387758 0.29563454 0.935323
O -0.7436296 0.89630204 -0.699765
N 0.12399553 -0.9831935 -1.7071795
C -1.0455719 0.16426612 0.44597635
N -2.2378027 -0.2386487 0.5736147
H 0.41072705 -1.2950591 -2.630414
H -2.3933773 -0.6483133 1.4919549
H 1.504293 1.2324946 0.38478962
H -0.29682183 0.87118 -2.639396
H 1.9915602 0.35576308 1.8449672
H -0.16486415 -0.45789492 2.1299148
H 1.7430073 -0.5293984 0.3101218
