14

C -2.3925467 -0.07558804 0.9729916
N -1.3516717 0.13812485 -0.013273515
C -0.03363416 0.0374773 0.34310952
O 0.3543078 -0.07699945 1.4909016
N 0.8436273 0.10534555 -0.7345963
C 2.2169077 0.0023791161 -0.59209865
N 2.9632761 0.10986158 -1.6151536
H -2.0402544 0.2982501 1.9336622
H -2.648961 -1.1368225 1.0849352
H -3.2892344 0.4767654 0.679517
H -1.5938516 -0.019294728 -0.9786115
H 0.51569116 0.29996908 -1.6711336
H 2.5210397 -0.17176831 0.44092777
H 3.9353042 0.012300062 -1.3411778
