14

C -0.99803049 -0.29712989 0.48450783
N -1.99527992 -1.07496917 0.50699839
C -0.50022334 0.56458061 -1.63265971
O -1.04327342 0.76485248 -0.41544522
N 0.09114781 -0.23091686 1.30659589
C 1.31822228 0.46462748 0.96670179
N 0.24799471 -0.41239743 -1.91440155
H 0.18825641 -1.02522680 1.92011832
H -1.93034577 -1.73731745 1.27670975
H 1.09319291 1.49958571 0.69726269
H -0.80013970 1.38904831 -2.28993242
H 0.52429301 -0.36542413 -2.89076717
H 1.96119616 0.47321280 1.85109762
H 1.84298935 -0.01252566 0.13321372
