10

O 1.7505568 -1.1303349 1.0133674
C 0.80217844 -0.612506 0.50186807
C 0.5057945 -0.08543571 -0.93078643
C -0.72051215 0.5832246 -0.3089482
O -1.5231086 -0.46372297 0.19825152
C -0.4723266 0.026151171 1.0340048
H 0.29297534 -0.821908 -1.7079931
H 1.2946622 0.5983263 -1.2598
H -1.1952614 1.5226369 -0.5623386
H -0.73495877 0.38356867 2.0223742
