10

O 1.372033 -0.09744957 1.8401641
C -0.41299206 0.031991012 -0.985256
C 0.5483839 0.22515924 0.9812008
C 0.6300519 0.8274454 -0.35795248
O -0.010469873 -1.429555 -0.8739854
C -0.63064384 -0.82631695 0.16594383
H -0.35171315 0.9026085 1.2358996
H 1.4281337 1.4224157 -0.8009231
H -1.5065608 -1.292728 0.61914104
H -1.0662229 0.23642989 -1.8242325
