10

O 1.60942692 0.12324244 0.44548941
C 0.88425860 -1.06194850 0.15577308
C 0.55160056 0.20193882 -0.50219588
C -0.63676175 1.02967907 -0.13833366
O -2.65265886 0.01985143 0.90037876
C -1.70986100 0.49998535 0.40929673
H 1.42867664 -1.82919291 -0.39297181
H 0.90111389 0.34218375 -1.52580719
H -0.63421663 2.09608720 -0.32432185
H 0.25842139 -1.42182659 0.97269207
