13

N 0.60124004 -1.2846633 0.6224057
C -0.27928042 0.70570165 -0.6548686
C 0.03971436 0.20922294 0.7300789
N -1.1242214 -0.29086828 -1.3172117
C 0.9316959 0.9706245 1.5338786
N 1.6267623 1.5915337 2.2305365
H 0.62783074 0.8092073 -1.2746775
H 0.21202546 -1.6637151 -0.24185206
H -0.72941625 1.7045788 -0.5655539
H -1.2649939 -0.04912913 -2.29143
H 1.6060115 -1.3909403 0.7303713
H -2.0376198 -0.2999393 -0.8725071
H -0.2097486 -1.0116132 1.3708299
