9

O 1.005222 -0.94468236 -1.5026662
C 0.30861276 -0.3469347 -0.52094895
C -0.94181114 -0.621492 -0.07890641
O -1.1978863 0.26545087 0.9411787
C -0.08988887 1.0050355 1.038574
N 0.84523034 0.6954947 0.19989476
H 1.8647732 -0.50392765 -1.5435383
H -1.7175132 -1.3261839 -0.3286691
H -0.07673866 1.7772396 1.7950814
