9

O 1.1470307 0.976098 -0.9556388
C -0.12159732 1.3221302 -1.287885
C -0.07662502 -0.2585498 0.3777719
O -0.6012896 -1.0472862 1.3452147
C 1.1893066 0.029081382 0.042066418
N -0.8567556 0.54670954 -0.44759628
H -1.863635 0.5941134 -0.4120363
H -0.96747684 -1.851421 0.9492957
H 2.151042 -0.3108757 0.38880754
