11

N -0.5264838 0.9185884 -0.61302406
C -1.2602348 -1.0855954 -1.2618754
C 1.0226336 1.1059585 0.97997653
C 1.8155142 0.13862722 1.4087903
N 0.24029885 1.7631575 0.23579432
N -0.47961935 -0.2860462 -0.3244132
H -1.7935517 -0.46402526 -1.9879894
H 1.6488593 -0.27542514 2.4039373
H -0.57291704 -1.7654393 -1.7728348
H 1.8660679 1.6430011 1.6133498
H -1.960567 -1.6928015 -0.6817112
