12

O 1.50532806 0.69526923 -0.33988074
C 0.34198375 0.19854441 -0.93874002
C -0.92067571 0.39764341 -0.13119816
O -0.73402327 1.10827866 1.05922975
C -0.27210401 -0.96057106 -0.18983520
O 0.38451907 -1.31624053 0.99406562
H 0.33581734 0.22356667 -2.02482239
H -0.50344738 0.43722916 1.72434126
H 1.19750366 1.36450579 0.29637371
H -0.75221662 -1.78225982 -0.71376386
H -1.86576693 0.59161902 -0.63128191
H 1.28308215 -0.95758499 0.89551214
