12

O -0.49135744 2.16581976 0.54427191
C -0.28224096 1.37725671 -0.34621166
C 0.60984740 0.17207029 -0.12967797
O 0.98547577 0.11540382 1.21999556
C -0.13950186 -1.11330143 -0.47887348
O -1.25831415 -1.25516584 0.35865057
H -0.71529464 1.50510649 -1.35691792
H 1.48814138 0.28015156 -0.78844938
H -0.50578641 -1.07955541 -1.51120646
H 0.55760933 -1.95901050 -0.39214957
H 0.67351769 0.94767041 1.61856468
H -0.92209632 -1.15644510 1.26200359
