9

N -0.7740124 0.24508464 -0.87519586
C 0.5730841 0.309339 -0.7623223
C 0.8702926 -0.1112292 0.51551235
C -0.38699344 -0.40670645 1.0876848
N -1.3797992 -0.1876089 0.23727366
H -1.3398561 0.4780601 -1.6755692
H 1.1976913 0.63874686 -1.5798374
H 1.8461463 -0.19564344 0.9692922
H -0.60655326 -0.77004254 2.0831618
