11

C 0.32320392 0.9281845 -0.63596886
C 0.5806661 -0.4647377 -0.056834858
O -0.46159962 -1.2953584 -0.59548604
C -0.2768859 -0.4507673 1.1432657
O -1.0513846 0.989383 -0.48192158
H 0.8783195 1.666066 -0.028837169
H -0.4794342 -1.3909874 1.6496356
H 0.66566485 1.0120223 -1.6862803
H 1.5495163 -0.9641273 -0.0587725
H -0.6359953 0.46981105 1.5888361
H -1.092071 -0.49948847 -0.8376358
