11

O -1.48047711 1.00065746 -0.28733484
C -0.65302918 -0.00599981 0.21998691
C 0.70895950 0.35534034 0.83795694
C 0.18838746 -0.86357569 -0.73950371
O 1.36532293 -0.65269261 0.05536923
H -0.95960421 1.55260660 -0.88695185
H 1.04934160 1.36954632 0.57647195
H -1.28042637 -0.60204926 0.88822403
H 0.84167261 0.19513332 1.91349502
H 0.28257996 -0.42284189 -1.74421406
H -0.06272671 -1.92612466 -0.83349953
