11

O -1.1209022 1.2520578 -0.48538834
C -0.6155741 0.7301813 0.71916085
C 0.46290362 -0.29773697 0.45395106
C 0.42812496 -1.1350567 -0.7417948
O 1.2803484 0.011404248 -0.66992724
H -0.3476308 1.4259887 -1.0404688
H -0.19862865 1.5228976 1.3602004
H -1.4478172 0.26621094 1.2577946
H 1.0137694 -0.6506685 1.3273281
H -0.4045347 -1.0343078 -1.4342693
H 0.94994175 -2.0909705 -0.74658644
