11

O 0.2523574 -1.4860204 0.14573629
C 0.68000793 -0.3253934 0.8733673
C -0.58029354 -0.69345117 -0.7144952
C -0.38617915 0.5413156 0.18088809
O -0.029235533 1.7673203 -0.38911894
H 0.7353299 1.6269206 -0.9646401
H -1.2497034 0.7470147 0.8192115
H 1.710591 -0.032957237 0.61797005
H -0.14336279 -0.5732013 -1.7180852
H -1.5909315 -1.106715 -0.8079178
H 0.60141987 -0.46483248 1.957084
