12

N 3.0401745 -0.76579696 -1.2063829
C 0.8634487 -0.58205974 0.1832009
C -1.2607757 -0.35868576 -0.030654052
O -2.2051754 0.43285543 0.5049515
C 2.0910053 -0.6878043 -0.53543556
N 0.29652664 0.777733 0.22915871
H -1.2002214 -0.39938578 -1.112059
H 0.89105666 -1.0147201 1.1800649
H -1.2923867 -1.3049852 0.4946657
H 0.6339541 1.4125358 0.95821524
H 0.41647545 1.2273238 -0.6747882
H -2.2740822 1.2629896 0.0090625
