10

O 2.01879712 1.07616169 0.14411647
C 0.98351909 0.35539103 0.11026855
C 1.74633661 -0.71397181 0.59612054
C -1.35956394 -0.27409855 -0.06243554
N -0.27526246 0.69072362 -0.14443407
H 2.24285575 -1.21088097 -0.25269673
H -0.94826211 -1.20999554 0.32918539
H -1.80196999 -0.46175836 -1.04565207
H -2.13267846 0.07992907 0.62610904
H -0.47377139 1.66849952 -0.30058154
