10

O 2.0047438 -1.0645366 -1.0923752
C -0.7316457 0.5510437 -0.698328
N 0.25731495 0.06428581 1.4205118
C 0.8285407 -1.2180208 -0.89249885
C -0.47300416 0.8463347 0.74258816
N -0.16495743 -0.3506967 -1.3773179
H 0.34807587 0.38438654 2.3862472
H 0.38837522 -2.12215 -0.43074903
H -0.9707359 1.7418321 1.1355779
H -1.4867074 1.1675209 -1.193656
