10

O -2.42523685 0.13660929 0.66714567
C 1.12009299 -0.45336788 0.17692346
N -0.93548740 0.00482887 -1.08260965
C 0.22456020 -0.49051610 -1.01763614
C -1.59150229 0.65808271 -0.02561247
N 0.79430816 0.24541831 1.18196526
H 0.62315055 -0.98117456 -1.90976401
H -1.34937548 1.73754997 -0.00252137
H 2.04466435 -1.03786481 0.08960470
H 1.49482616 0.18043426 1.92250458
