11

C -1.10840958 -0.54755745 -1.38972888
O -0.96513920 0.79228416 -0.90511125
C 0.05453235 -0.13384721 -0.62713881
C 0.81405197 0.37045201 1.50948481
O 0.16632037 -0.56996632 0.66624580
H -1.86870813 -1.13785357 -0.88365212
H 0.21600993 1.28339157 1.60247929
H -1.05040639 -0.65968980 -2.47175539
H 1.01111067 0.08265828 -1.11302939
H 0.91798662 -0.10475259 2.48711562
H 1.81265133 0.62488077 1.12509059
