10

N -0.050609503 -0.71831745 1.9108968
C 0.20043263 0.94859827 0.019559685
C 0.049822617 -0.34457737 0.70162106
O -0.093905166 -0.6106729 -1.5787776
C 0.081101626 0.69187856 -1.2865807
N 0.03692584 -1.29005 -0.34262165
H 0.10895216 1.3346057 -2.1560113
H 0.33014578 1.9083841 0.49581712
H -0.68792975 -1.9969506 -0.30362478
H 0.02506375 0.07710182 2.5397213
