10

N -0.5664947 1.1649296 -1.2876811
C -0.15474606 0.2496595 -0.32511547
C 0.68784785 -0.8122637 -0.39452803
O 0.68858826 -1.4135587 0.84504616
C -0.15089943 -0.67459 1.5748247
N -0.6835757 0.3244052 0.9534792
H 0.14712213 1.4178973 -1.9562418
H -0.9728944 1.986355 -0.86005044
H 1.3058331 -1.2661291 -1.1519263
H -0.30078113 -0.97670496 2.6021929
