10

N -0.50555660 0.30920469 -0.92701690
C -0.22529586 0.23117949 0.52864071
C 0.62133334 0.44592253 -1.45281925
O 1.71701047 0.43637915 -0.53832545
C 1.28879365 0.27183880 0.69863791
N -0.84832149 -0.85516115 1.23329163
H 0.89828517 0.55550609 -2.49253494
H -0.58642835 1.18167530 0.95777068
H -0.50825098 -1.74757869 0.89515047
H -1.85156945 -0.82896608 1.09720495
