10

N -0.5306395 -1.590561 -0.62852925
C -0.21706921 -0.27403525 -0.2711629
C -1.1933326 0.7481449 0.062190734
O -0.3672394 1.6981148 0.6405367
C 0.9006341 1.2150164 0.72047824
N 1.0886326 0.060841285 0.21809477
H -0.44659036 0.45580983 -1.1993451
H 1.6338079 1.8620979 1.1863209
H 0.30285567 -2.1507978 -0.74996954
H -1.1710588 -2.024631 0.021385472
