10

N 0.05141804 1.1018625 1.5489593
C -0.2820951 -1.0425481 0.042726606
C 0.14486144 -0.96876836 -1.2433152
O 0.4752114 0.27958038 -1.6331669
C -0.14439349 0.31082216 0.5010555
N 0.12922469 1.0896765 -0.5555343
H -0.56078196 -1.9260045 0.5973311
H -0.5382308 0.99030185 2.3650262
H 0.4486102 1.8910323 0.38273737
H 0.27617553 -1.7259549 -2.0058196
