10

N -0.4244294 -1.7386595 -1.3931595
C 0.6119754 0.342022 1.2565526
C 0.4590487 1.2760373 0.1756895
C -0.65597785 0.15551673 0.30816242
C -0.5395461 -0.84599936 -0.588584
H -1.6483737 0.40645966 0.6702017
H -0.19511746 -2.6795616 -1.0933247
H 1.3714978 -0.42572498 1.0493308
H -0.040553574 2.2335055 0.3528025
H 1.0614763 1.2764043 -0.7376714
