10

N -0.041688357 -2.2824843 0.06828089
C -0.7496566 0.02806481 -0.07763014
C 0.091711596 1.3041768 -0.25046366
C 0.7192044 0.124848075 0.40380773
C -0.5679229 -1.3217711 -0.42557415
H -1.531184 0.11665223 0.67524815
H -0.3587242 2.1109471 0.3239262
H 0.42941558 1.6075912 -1.24005
H 0.612498 -1.4146737 0.87334114
H 1.3963464 -0.27335116 -0.35088605
