10

N -0.47213742 -1.27310742 -1.81666020
C 0.24037320 1.23519703 0.53513804
C -0.51648749 -0.73938890 -0.73471135
C -0.55602213 -0.13522748 0.47117877
C 0.87269214 0.09575807 1.14002466
H 0.54184118 1.68316558 -0.41648611
H -1.43025291 -0.29357775 1.09531020
H -0.35833577 1.91364793 1.15074240
H 0.00754851 -2.15792414 -1.93824314
H 1.67078063 -0.32854292 0.51370684
