17

C -0.1783639 -1.1044708 1.810959
N 0.4496626 1.2994515 0.3207819
C -0.911945 -1.7593303 -1.3988236
O -0.21273836 0.09187731 -1.5158858
N -0.30631095 -0.9272112 0.39249453
C 0.9027133 2.4093432 -0.48863766
C -0.007514591 0.15528326 -0.2609964
H 0.94404054 3.3069465 0.13060406
H 0.8460427 -0.9147716 2.1648312
H 1.8891342 2.2364852 -0.936297
H -0.5865391 -1.731577 -2.4362695
H -0.8693584 -0.4750986 2.3913398
H -0.61377966 -2.6834633 -0.91121554
H 0.1829531 2.568547 -1.2940522
H 0.83906114 1.200221 1.2424217
H -1.9618511 -1.523071 -1.267367
H -0.4052065 -2.1491606 2.0561123
