17

C -1.29504701 1.82995634 0.72968911
N -0.05198266 0.24547885 -1.22397815
C -0.05963405 -0.05681591 0.12150586
O 0.57826676 -1.21616808 0.35726559
N -0.60231754 0.60527519 1.06656013
C 0.53325666 -1.67172656 1.70471852
C 0.85762200 -0.38482850 -2.16021280
H -1.70980929 2.25818868 1.64685015
H -0.62996806 2.59156535 0.28884750
H -2.13318102 1.67204107 0.03338616
H -0.31926355 1.19143802 -1.43224571
H 1.09318185 -2.60962993 1.71005258
H 0.99393144 -0.94690938 2.38040889
H -0.49927805 -1.84064138 2.02565717
H 0.52714554 -0.14171333 -3.17364815
H 1.89769879 -0.05710819 -2.03559280
H 0.81937813 -1.46840312 -2.03926380
