10

O -0.56456536 -1.8780322 -0.7913425
C 0.21263774 -0.99017066 -0.04664914
C -0.31490946 0.42009836 -0.14590482
O -1.2899605 0.69300216 -0.8139047
C 0.40164933 1.5245458 0.6118132
O 1.3725947 1.3187871 1.2928684
H -1.2600178 -1.3559523 -1.21099
H 0.23798463 -1.2722976 1.0174133
H 1.2587755 -0.98664486 -0.38972846
H -0.054188877 2.5266645 0.4764248
