11

N 0.58297455 -2.0265722 0.1919797
C 0.26205608 -0.8162405 0.6786206
C -0.3085062 1.398168 -0.4031683
N -0.37380695 -0.23052238 1.5948647
C 0.4437346 0.6064704 0.60650927
N -1.1196036 0.8307957 -1.197668
H -0.11994885 2.4801219 -0.39231724
H 0.87627167 -2.0430653 -0.7724014
H -0.012663475 -2.7935517 0.47405678
H -1.5744187 1.5252548 -1.7900982
H 1.3439108 1.0691409 1.0096219
