11

N 1.4442616 -0.8208474 -1.3856387
C -0.80903274 -0.33672833 0.32190502
C 0.23989254 0.6319277 0.028326819
N -1.7677097 -0.07261952 1.2717874
C 1.4255986 0.20808932 -0.6134893
N -0.7631377 -1.3175392 -0.4693402
H -0.012205369 1.6891178 0.085606895
H -2.6517224 -0.5434172 1.1433246
H -1.8257942 0.88841003 1.5715891
H 2.3185067 0.8111514 -0.40893024
H 2.4013426 -1.1375446 -1.5451416
