12

N -0.2738845 -0.015144131 -2.0495274
C -0.15814756 -0.03943691 -0.653286
C -1.030915 -0.31435472 0.33600086
N -0.35494304 -0.09906535 1.5502164
C 0.93592983 0.33273256 1.330747
O 1.7747804 0.65948 2.1482778
N 1.0516924 0.31749535 -0.057292055
H 0.28968403 -0.7282929 -2.4995651
H -1.2367908 -0.12435291 -2.339035
H -2.0468726 -0.67302763 0.29498678
H -0.7639279 -0.092344664 2.4685574
H 1.8133948 0.7763112 -0.53008074
