12

N 1.21056836 -0.34399155 -0.96220533
C 1.34130646 -0.85316090 0.20773280
N -1.26104099 -0.53974047 -0.79118817
C 0.08750459 -0.33489495 0.88032330
C -1.15235826 -1.04977119 0.38250430
C -0.06350410 0.31491632 -0.54830110
N -0.20136375 1.64315080 -0.97361733
H 0.61687802 2.21065770 -0.79014033
H 2.14977555 -1.49846699 0.54139780
H 0.11735987 0.16680863 1.85009806
H -1.80349925 -1.80056712 0.82507592
H -1.04162629 2.08505959 -0.62167982
