12

N 2.167606 0.393646 -0.69581294
C 0.8848181 0.16547523 -0.28344584
N 0.7067296 -0.840552 0.5848008
C -0.53906536 -1.0230094 1.0070361
C -1.6083843 -0.2395257 0.58754593
C -1.2933488 0.76460534 -0.32220232
N -0.06307452 0.9814167 -0.7705563
H 2.2876368 0.96258146 -1.5183563
H 2.8309069 -0.34529495 -0.53021556
H -0.6887034 -1.8392081 1.712733
H -2.6179714 -0.40417042 0.9417343
H -2.0671494 1.4240357 -0.71326077
