10

N -0.57959343 0.80549161 -1.42027336
C 0.08128641 0.02649012 -0.52831373
N -0.14401101 -0.01709336 2.02321356
O -1.29550407 -0.28874327 1.77877352
C 0.70475444 0.07779771 0.81188469
C 0.71806012 -1.05556814 -0.17061043
H -1.02267335 0.31870900 -2.18417636
H 1.08831321 -2.05261431 -0.34006644
H 1.60296494 0.65471980 1.04034027
H -1.15359719 1.53081083 -1.01077219
