10

N -1.2411317 0.5437748 1.1141682
C 0.48838505 1.0402837 -0.6686152
N 0.8288964 -1.438073 -0.03755047
O -0.3870491 -0.0004993557 1.835213
C 0.6231689 -0.21228065 -0.424181
C -0.897188 0.8841991 -0.16639763
H -1.7428422 1.1072832 -0.8138401
H 1.0628445 1.8725319 -1.0515878
H 0.7695185 -2.193656 -0.7048757
H 0.49539796 -1.6035635 0.91766673
