10

N -0.31880656 -1.004412 -1.5102824
C -0.07545284 -0.4412693 -0.2685119
N -0.03208176 -1.17591 0.81416583
O 0.31577283 -0.30636194 1.8411136
C 0.45306018 0.92356616 1.3365678
C 0.22229892 0.9307851 0.003732852
H -0.8815118 -0.42751893 -2.119678
H -0.67523485 -1.9478924 -1.4496342
H 0.7246144 1.6939951 2.0432765
H 0.26734155 1.7550182 -0.69075054
