11

O -0.59773284 -1.88916809 0.81352083
C 0.99035775 -0.06851148 0.25401705
C -0.16852813 -0.96347578 -0.13795368
C -0.71935501 1.12194574 -0.59674383
C 0.65878468 1.18390423 -0.06724064
N -1.22448623 -0.05671629 -0.60009983
H -0.94494464 -1.40075963 1.57144476
H 0.12908387 -1.56365551 -1.00933897
H -1.28675316 1.98437621 -0.93838703
H 1.24538165 2.08870594 0.03697492
H 1.91819206 -0.43664483 0.67380654
