10

O -1.7088879 1.23362 -0.56624687
C 0.3736698 -1.2501849 0.60281503
C 0.6704261 0.5801014 -0.4997057
C -0.8184229 0.53763604 -0.15442145
N -0.9079621 -0.6111767 0.60334927
H 0.8513466 0.86167985 -1.5404223
H -1.7375207 -1.1753706 0.47405767
H 1.285556 1.1813607 0.17472504
H 0.9839058 -0.76250327 1.3842157
H 1.0078896 -0.5951625 -0.47836637
