10

O -0.13031814 0.40009566 1.95712090
C 1.66162682 -0.64570733 -0.90725276
C -0.03233538 0.15587136 0.78160485
C -1.14616302 0.28831206 -0.21909617
N 1.24081761 -0.29483149 0.29530526
H 0.78867978 -0.54064297 -1.58578338
H 1.90393760 -0.33184773 1.06750800
H -1.38390967 -0.67943046 -0.67459516
H -2.02477013 0.66383099 0.30665749
H -0.87756513 0.98434996 -1.02146889
