10

O 0.16808014 -0.7498161 1.8484876
C -0.9722043 0.65513813 0.26538554
C 1.2369784 -0.44093361 -1.5088112
C 0.08395502 -0.307783 0.7310737
N 1.0630621 -0.72830313 -0.23072203
H 1.7200133 -1.3677999 0.21296073
H -1.5817462 0.21609339 -0.5322527
H -0.525091 1.5788372 -0.11839213
H -1.6103936 0.88916945 1.1182194
H 0.41734657 0.25539765 -1.7859489
