12

C 1.4014621 -0.2929013 0.8831556
C 0.33720246 -0.5043536 -0.18581837
C -0.590922 0.69293267 -0.31922865
O -0.22441582 1.8358237 -0.11490445
N -1.8685024 0.3972874 -0.7000989
H 2.1150696 -1.1218233 0.88952124
H 1.9415547 0.63919085 0.69628996
H 0.9515607 -0.22341166 1.8783107
H -0.247195 -1.4126234 0.014232817
H 0.812965 -0.6455234 -1.1648669
H -2.1424448 -0.53161633 -0.965606
H -2.486335 1.1670184 -0.910987
