12

C -0.03461064 0.74554956 0.58175474
C 1.3392595 0.7221809 -0.05080678
C -0.4116832 -0.5861784 0.03965314
O 0.31599012 -1.6625644 0.3095286
N -1.4672159 -0.7835528 -0.7224065
H 1.3863268 1.2566121 -0.9961566
H -0.76600915 1.5160799 0.29164913
H -1.5863379 -1.6600913 -1.2087667
H 1.2031127 -1.1858441 0.34192932
H -0.004252831 0.6893717 1.6757498
H -2.121981 -0.034638174 -0.89294505
H 2.1474013 0.98307514 0.6308168
