12

O -0.14030403 0.095062114 2.5966868
N 0.2519926 0.47567284 -1.36995
C 0.99664927 0.22091144 -0.12881157
C -0.9744936 -0.15224029 -0.8314609
N -0.775239 0.57162905 1.5851212
C -0.35106167 -0.21926896 0.5562132
H -1.1930411 -1.1412026 -1.2517581
H -1.8712159 0.47348213 -0.8916912
H 1.4670295 1.1036913 0.31878296
H 1.7271068 -0.5946972 -0.19314672
H 0.64242446 -0.014950957 -2.163297
H 0.2201528 -0.8180891 1.7733114
