12

O -0.87476645 -2.31799146 1.39048231
N 0.41968111 1.18724135 -0.76875503
C -0.58899977 0.93620290 0.27372212
C -0.43681142 -0.57857537 0.03914456
N -0.18383725 -1.33263955 1.27618779
C 0.86323029 -0.21467155 -0.70867134
H 1.12384414 1.87630122 -0.53269409
H -0.27790998 1.20906681 1.29123763
H 1.74158619 -0.39331028 -0.07374949
H -1.22207128 -1.04986372 -0.56166900
H -1.57394952 1.36384090 0.06065765
H 1.01000415 -0.68560147 -1.68589316
