12

O -1.4779766 -1.7906122 1.6373866
N -0.5141643 -1.1001867 1.4012865
C -0.23050854 1.0955912 0.21181646
C -0.5972974 -0.39715314 0.11221033
N 0.7261388 0.92237955 -0.89364254
C 0.6922368 -0.5390152 -0.72369623
H -1.0353291 1.8080744 0.004383812
H 1.5083803 -0.95122236 -0.11497487
H 1.6314964 1.3551617 -0.75435483
H -1.5347881 -0.6247901 -0.4064565
H 0.22574644 1.323642 1.1846441
H 0.6060653 -1.101869 -1.6586027
