11

C -1.6733006 0.73478734 0.5805901
N -0.94158185 0.71712893 -0.51608396
C 1.1948854 -0.28511727 -1.074967
N -1.1557224 0.06156125 1.6364207
C -0.021870475 -0.4001313 1.1425616
N 0.12277759 -0.0207555 -0.13701326
H 1.939787 -0.91990507 -0.5891222
H 1.6564109 0.6553757 -1.380893
H 0.79319197 -0.7976072 -1.9514488
H 0.7067264 -1.0009992 1.669142
H -2.6213038 1.2556624 0.62081414
