12

N -0.64273095 0.29519758 -0.8888811
C -0.19257933 -0.6280225 -0.06660125
N 0.64457136 -0.26161835 0.905399
C -0.01939124 1.394092 -0.37611663
O -0.1965943 2.618921 -0.92289925
C 0.77658373 1.094153 0.72013175
N -0.30960503 -2.0554512 0.1315667
H -0.78220725 2.494957 -1.6807585
H 0.07202411 -2.634349 -0.6118827
H -1.235825 -2.3843756 0.39355257
H 1.386924 1.7322528 1.3409879
H 0.4988297 -1.6657562 1.0555013
