12

C 0.5086444 -0.5787986 0.5601012
C -0.40931648 0.16328754 1.4749908
N 0.6825386 0.6391901 -1.2219689
C -0.33879852 -0.0070223687 -1.6834358
O -0.8584358 -0.9117709 -0.975091
H -0.4095912 1.2310348 1.2426528
H -0.030625308 0.039566416 2.5014966
H 0.40513462 -1.6564438 0.54996127
H 1.11337 1.351953 -1.8001683
H 1.5424992 -0.25954977 0.59703827
H -0.7785073 0.21509151 -2.6654513
H -1.4269122 -0.226538 1.4198744
