12

C -0.34992954 -1.1045543 0.9799373
C -0.26084566 -0.6278334 -0.46784008
N -0.26440775 0.8201504 -0.5849724
C 0.87736017 1.5515316 -0.4956405
O 1.9949465 1.0830632 -0.40880772
H -0.34570062 -2.1974685 1.0245309
H -1.2692219 -0.7471522 1.4586824
H 0.50697845 -0.7309016 1.5484529
H -1.0962358 -1.0167044 -1.0581362
H 0.66900456 -0.98156464 -0.9244902
H -1.1449405 1.3113157 -0.5396718
H 0.68299186 2.6401184 -0.5320446
