12

C 1.4416511 -0.16334179 0.5914343
C -1.4307548 0.92114884 -0.2675698
N -0.96614635 0.21014644 -1.244104
C 0.18469329 -0.88511425 0.2325229
O -1.0423251 0.6523985 0.90012795
H 1.35634 0.3698017 1.5388741
H 1.7155479 0.54067373 -0.19845316
H -1.2889632 0.40839407 -2.18686
H -0.3474871 -1.3766223 1.0363169
H -2.1415431 1.7437567 -0.41936094
H 2.2447128 -0.911734 0.66584784
H 0.27427498 -1.5095077 -0.64877564
