12

C 0.17536140 0.41382389 1.45222170
C -0.95690819 -0.71649648 -1.41303443
N -0.07483261 0.23168766 -1.00831352
C 0.81463871 0.02217506 0.12182259
O -1.01593462 -1.84470686 -0.96480535
H 1.07589630 -1.04081564 0.12340524
H -0.72560182 -0.18440549 1.62132058
H 0.87080609 0.24040018 2.27894979
H -1.61522661 -0.35189895 -2.22476446
H 1.73050760 0.59606653 -0.05342634
H -0.17354975 1.16071903 -1.39038717
H -0.10515647 1.47345097 1.45701135
