10

N -0.99667144 -0.24199013 -0.48947316
C 0.46702567 0.90155256 0.8203248
C -1.9784493 0.50390524 -0.45896414
O -0.43228695 1.6725721 1.1130018
C 0.24452147 -0.22199991 -0.085185856
N 1.2477251 -1.1357645 -0.4243412
H 1.4922394 1.0164366 1.2087985
H 0.86935717 -2.0018985 -0.78183705
H 1.9164305 -0.7652438 -1.088562
H -2.8298912 0.27243036 0.18623827
