11

N 1.17934091 -1.74946570 1.38986390
C -0.49669535 0.17605306 -0.91290268
O -0.76742007 -0.50421094 -1.85382930
C -0.82008409 1.63253023 -0.72486973
C 0.50041835 -1.59802149 0.26074772
O 0.20066865 -0.27030628 0.20090233
H 1.37762881 -0.98334790 2.02858863
H 0.10244582 2.20454952 -0.59565192
H -1.36361379 1.99315884 -1.59852795
H -1.42676169 1.76741654 0.17517021
H 1.51407234 -2.66835590 1.63050821
