10

O 0.75078255 -0.52707994 -2.0679843
C -0.25007126 1.2218999 0.7845421
C 0.29826507 -0.26017466 -0.84332
N 0.20600164 0.99408776 -0.47095996
N -0.60729074 0.3393057 1.6836652
C -0.07639272 -1.3394661 0.016283827
N -0.5029021 -0.9250958 1.2111621
H 0.9397148 0.32578886 -2.48849
H -0.32273853 2.2650676 1.0839766
H -0.43536866 -2.0943332 1.0911249
