11

N 1.13681750 0.76498308 0.16267718
C 0.59263596 -0.04796514 -0.65901909
N 1.09791010 -0.48245123 -1.84953306
N 0.11212857 1.00570352 1.07406225
C -0.95922931 0.17350888 0.86922976
N -1.97293899 0.02723249 1.60051309
O -0.66269659 -0.45556399 -0.33961411
H 2.07598267 -0.26372030 -1.95645773
H 0.85289438 -1.42830941 -2.09789509
H 0.35098064 1.35164603 1.98683795
H -2.62448444 -0.64506388 1.20919897
