11

N 1.8476434 -0.11037282 -1.4367354
C 0.5980237 -0.1300164 -0.8695861
N -0.5450926 -0.24855548 -1.4443055
N -1.5004051 -0.07186614 -0.43446067
C -0.836845 0.094158836 0.6537711
N -1.2966121 0.19724652 1.9429507
O 0.5117907 0.07993175 0.471101
H 2.541605 -0.64876294 -0.936293
H 1.8026235 -0.35443413 -2.416426
H -0.8211737 0.8906197 2.5036778
H -2.3015573 0.30205116 1.9663062
