11

N -0.6085102 0.98544776 -0.79036605
C 0.38196376 0.22770418 1.0285456
N -0.80522573 -1.1539543 -1.8491759
N -0.17278998 1.2869583 0.497719
C -0.41286674 -0.28796384 -0.86968064
N 1.0797675 0.5766016 2.085097
O 0.20909956 -0.85443956 0.23289481
H 0.4692423 1.7702813 1.5281378
H 1.1543534 -0.039039835 2.8871043
H -0.109991364 -1.8425705 -2.100664
H -1.1850426 -0.66902494 -2.6496122
