11

N -0.81971216 1.7222146 1.0580155
C 0.8444919 0.24214754 0.11207631
C -0.1826676 -0.6747915 -0.36293936
N 0.33618084 1.4816914 0.7840106
N -1.0622363 -1.6152202 0.076565236
C 0.48596728 -0.05575454 -1.3028518
H 0.7084632 0.12647691 -2.3383582
H -1.4629074 -1.3974893 0.9788485
H -1.7567486 -1.9009212 -0.5991542
H 1.118975 2.1326208 1.0240743
H 1.7901939 -0.060974944 0.5697129
