11

N -0.8771062 0.99164957 -1.3417926
C -0.27966923 0.23805913 -0.31180584
C 1.0167632 0.30098614 0.15485622
N 1.0773022 -0.56044734 1.2083532
N -0.07630856 -1.1761087 1.4543658
C -0.9108574 -0.6989941 0.5394763
H -1.5580599 0.4548699 -1.8624166
H -0.19389272 1.3641677 -1.9860976
H 1.8711486 0.87891304 -0.16676742
H 1.8706976 -0.75872123 1.7948488
H -1.9400177 -1.034374 0.5169798
