9

O -1.10330935 -1.30482744 -0.03003313
C -0.88383716 -0.38740406 -1.10199157
C -0.31430968 -1.03137434 0.98991893
O 0.57670401 1.17704247 1.33218470
C 0.53762227 0.11355407 0.44268650
N 0.00700902 0.46383207 -0.88915924
H -1.51755721 -0.53772338 -1.96670833
H 1.53247259 -0.33844589 0.26011920
H 1.16520547 1.84534662 0.96298298
