9

O 0.8132409 -0.6004625 1.3155329
C -0.0056978962 0.5210349 1.3266529
C -0.42749402 0.5193545 -0.059636652
O -1.4854976 1.2068013 -0.53079253
C 0.7461196 -1.2111955 0.09863938
N 0.033017483 -0.62399244 -0.7773718
H -1.5228738 1.0647494 -1.4857583
H 1.3187115 -2.1224012 -0.019321479
H 0.5304736 1.2461113 0.13205568
