9

O -1.3763309 -0.79478014 0.6283359
C 0.49720612 0.36195672 0.3459436
C -0.66139925 0.0833825 1.3030969
O 0.6948747 1.7251577 0.18360986
C -0.82495403 -1.0069829 -0.67161876
N 0.21664625 -0.35807338 -0.91139525
H 1.4645613 1.843217 -0.38464963
H 1.3667988 -0.15336828 0.7993867
H -1.377403 -1.7005093 -1.2927092
