9

O -1.1541038 -1.2860123 -1.080863
C -0.3794411 -0.47299847 -0.3469813
C 0.47679046 -0.7909064 0.6543797
O 1.0286613 0.3924665 1.0829483
C 0.47073805 1.332361 0.31475616
N -0.3746509 0.8879252 -0.55550283
H -1.6356231 -0.7252849 -1.7065587
H 0.79618704 -1.6927615 1.1486453
H 0.771442 2.355211 0.48917642
