11

N 0.80097616 -2.0479932 0.33866787
C -0.5477942 1.3089228 -0.25310677
O 1.3663307 -0.2011361 1.1491507
N -1.4425505 1.8957102 -0.92974305
C 0.5395716 -0.7691557 0.33664286
N -0.40087828 -0.072943985 -0.35847712
H -1.4195012 2.894312 -0.740006
H 0.16768505 1.7526343 0.44142374
H -1.0250905 -0.54914117 -0.9932519
H 0.30804628 -2.7574673 -0.18138984
H 1.6532049 -1.4537414 1.1900895
