11

N 0.07648066 -1.03808106 2.25065184
C -0.21612899 -0.22641215 1.32137550
O -0.72909797 1.37992632 -0.79896178
N 0.29790392 -0.44304213 0.05057183
C 0.07487595 0.33066171 -1.07044404
N 0.52397297 0.16172714 -2.24621523
H -0.36900634 -0.75693434 3.11968616
H -0.84744434 0.66094211 1.39293965
H -0.81526543 1.84871287 -1.64354008
H 0.88425417 -1.25916632 -0.04790765
H 1.11945565 -0.65833388 -2.32815599
