11

N -0.6952404 0.40633795 1.9851338
C 0.020385297 -0.26323822 1.0172166
O 0.73707354 -1.214788 1.2457994
N -0.122954376 0.2842777 -0.25249594
C 0.5247583 -0.22912405 -1.366278
N 0.40321562 0.35160604 -2.488456
H -0.72867197 -0.08435218 2.8661203
H -1.5507516 0.8751733 1.7265338
H -0.6200317 1.1522895 -0.39570794
H 1.0974767 -1.1303593 -1.1415848
H 0.93474084 -0.14782247 -3.196281
