9

N 0.41198158 -0.3358452 -0.87791955
C 0.72621477 1.0984218 -0.35479346
C -0.7243482 -0.3172979 1.2803378
C -0.532696 0.36685273 0.005105081
N -0.8452901 -0.81213546 2.3163872
H -1.4707032 0.6610407 -0.4638466
H 1.4496787 0.93213975 0.45544037
H 0.17286544 -0.402092 -1.8602048
H 0.81229705 -1.1910841 -0.50050575
