10

N 1.0229532 0.89165 0.98119456
C 0.773623 0.09875998 -0.29407763
C 0.17401892 1.397903 0.049838148
C -1.3958327 -1.0473953 -0.465814
C -0.0917417 -1.1121314 -0.29793832
O -2.5493102 -1.0081221 -0.6106018
O -0.6335148 2.2537963 -0.15576339
H 0.6707475 0.59668154 1.8879919
H 1.6783698 0.025937183 -0.89371645
H 0.3506872 -2.0970788 -0.20111305
