12

N 0.44447413 1.0366215 1.3584025
C 1.0793114 0.32284346 0.3030344
C -0.020204624 -0.22242373 -0.47766408
N -0.05050301 -1.4159659 -1.2297457
C -0.9132412 1.0455093 1.2999233
O 0.782123 0.83102196 -1.0017586
N -1.1800722 0.2670062 0.21500665
H 0.9447047 1.5564793 2.0587707
H -0.5630988 -2.1425235 -0.7392292
H 2.0628986 -0.105103955 0.45040464
H -0.4658843 -1.269382 -2.139954
H -2.120508 0.09591765 -0.09719045
