12

N 0.09817565 -0.03157925 -1.87327220
C -0.01150081 0.20358387 -0.48627651
C -0.99060313 -0.39838037 1.57381647
N -1.19394234 -0.14684122 0.25105753
C 1.03308686 0.13881360 0.52386375
O 0.59564986 1.39679452 -0.00071608
N 0.35431583 -0.25882562 1.71022466
H -0.38127462 0.68001111 -2.40831818
H -0.27360652 -0.94424099 -2.11837093
H -2.11311213 -0.15955405 -0.15652448
H 0.80682144 -0.36423923 2.60192249
H 2.07598983 -0.11554241 0.38259390
