10

O -1.3854285 1.2495744 -0.8334671
C -0.6660436 -1.1658603 -0.4523804
C -0.58151174 0.31195456 -0.24625139
N 0.47954282 -1.6470324 0.09371856
N 1.244248 -0.59188086 0.4680513
C 0.7044653 0.6059014 0.2891246
H 2.1383266 -0.788359 0.90043974
H -1.1382396 -0.26086086 0.6417718
H 1.1974126 1.5335716 0.5405924
H -1.9927725 0.7529913 -1.4015995
