10

O 0.60547453 -0.017115172 1.84348
C 0.56181365 -0.062460486 0.44362062
C 0.20869814 1.2244517 -0.27560478
N -1.0456827 -0.60636634 -1.1174626
N -0.6468537 0.77381617 -1.1523042
C -0.38613778 -1.0850204 -0.13500626
H 1.554671 -0.3303247 0.02000533
H -1.1114259 1.323087 -1.8613368
H -0.47709066 -2.127106 0.14823112
H 0.73653316 0.90703815 2.0863774
