12

O 1.8465283 1.6757503 0.24107794
N -0.7919965 -1.4412923 0.075356655
C -1.0569065 -0.30608034 -0.84599566
C 0.13682951 0.39567223 -0.2536905
N 0.7661729 1.4288987 -0.6151168
C 0.25180665 -0.6755917 0.80564433
H -0.9862822 -0.56667036 -1.9063395
H 2.2481482 2.4565663 -0.15868615
H -2.0032415 0.21969733 -0.66741484
H 1.2173072 -1.1856124 0.86625624
H -1.5901277 -1.6762861 0.6544628
H -0.03823854 -0.3250516 1.8044456
