9

N -0.12115284 -1.7643845 -0.0002391466
C -0.033942576 -1.0970241 -1.9663241
O 0.7377228 1.7459493 -0.82604885
C 0.33741546 0.81886476 -0.15470582
C -1.1017847 -1.8352808 -0.7852525
C 0.15373553 -0.5290439 -0.7603599
N 0.024840688 0.8727224 1.1606365
H 0.18421447 1.746124 1.6414641
H -0.18104884 0.042072475 1.6908296
