11

O 0.54662025 0.6913979 2.2379746
C -0.00932 0.23510146 1.2904713
C 0.34914452 -0.36107022 -0.083181895
N 1.1187084 0.38108417 -1.0433102
C -1.1745236 -0.38242206 -0.261464
O -1.3546088 0.10573309 1.0969234
H 2.104801 0.3499214 -0.8112325
H 0.7786036 -1.3617418 0.022769302
H -1.5520597 0.3409286 -0.9874385
H 0.84191304 1.3564367 -1.0657982
H -1.6492786 -1.3553692 -0.39571333
