11

O 1.366677 1.1982543 -0.42397442
C 0.69691813 0.21472995 0.31016338
C -0.79475284 0.52583104 0.58559173
N -1.1136888 -0.7119886 -0.1259835
C 0.16743591 -0.9708861 -0.5228563
O 0.67094034 -1.7683666 -1.2729886
H 1.9704561 0.74646175 -1.0269494
H 1.2515756 -0.095186934 1.2052456
H -1.0962886 0.5285412 1.6346585
H -1.1278942 1.4326471 0.07659258
H -1.9913787 -1.1000373 -0.43949932
