11

C -0.17687789 0.19049667 -1.7343781
C 0.3707224 0.57142216 -0.45070457
N 1.1171956 1.023007 0.37543562
C 0.7805335 -0.107331514 1.3413448
C -0.5469155 -0.4430771 1.5404282
O -1.4626379 -0.112729326 0.75139123
H -0.5257242 1.1049714 -2.2245252
H 0.58900213 -0.2890723 -2.3513644
H 1.6632781 -0.48250732 1.8375436
H -1.0366259 -0.45872393 -1.5516409
H -0.7719505 -0.99645585 2.4664693
