11

C -0.5327302 -1.0785737 -1.4123425
C -0.017345509 -0.24884506 -0.28836492
N 1.15827 -0.26158226 0.24832222
C 1.0910596 0.6916066 1.2551416
C -0.14204963 1.2351807 1.2663974
O -0.8690042 0.64146537 0.2767729
H -1.4262179 -1.6326706 -1.1083603
H 0.24187274 -1.7866081 -1.7118307
H -0.80026126 -0.45821878 -2.2731557
H 1.9364233 0.9097559 1.8927245
H -0.640017 1.98849 1.8546954
