12

O 0.5685653 -0.24521674 -1.7153792
C 0.15392247 -1.3304425 -1.1559193
C -1.0566251 -0.0063278833 0.30695727
O -0.59419036 -1.3371853 -0.14969422
C -0.008658203 0.75072604 1.07231
O 0.8344724 1.6003596 0.30143264
H 0.6080999 0.093237124 1.716157
H -0.0004491052 0.47720158 -1.3671724
H 1.5886191 1.1109773 -0.031834036
H -1.9274558 -0.26441777 0.9114983
H -0.5702447 1.4333776 1.7260699
H 0.40394396 -2.282289 -1.614426
