12

O -1.15938608 -0.54493754 0.70630114
C -0.11645733 0.29358481 1.12743537
C 0.52638012 1.10210434 0.07983456
O 1.52073412 0.37901212 -0.70686446
C -1.23917322 -1.27364035 -0.31439014
O -0.34709202 -1.41459143 -1.25109437
H -2.11038759 -1.92094830 -0.34683077
H 0.43280357 -0.81485119 -1.13311850
H -0.45841315 0.80281651 2.02187965
H 2.07491815 -0.07200312 -0.05265418
H 1.02239365 1.95626506 0.56462384
H -0.14631997 1.50718904 -0.69512149
