12

O 1.5894839 0.5450908 -0.3638088
C -0.5031929 0.50455964 0.92902166
C 0.3031088 1.1817423 -0.09845705
O 0.2755016 -1.6998185 -0.84940857
C -0.8735813 -1.5582345 -0.25556234
O -1.2250961 -0.6207152 0.50383174
H 0.8805233 -0.92835397 -0.7057596
H -0.14913483 1.2398326 -1.1030849
H 1.9748489 0.3895818 0.51131207
H -1.1783347 1.110292 1.523625
H -1.5836692 -2.376293 -0.33059514
H 0.48954263 2.2123163 0.23888591
