10

O 0.035117447 -2.548749 0.5190029
C -0.23950005 -1.9927653 -0.5096216
O -0.23670638 -0.66534704 -0.69963694
C 0.13621205 0.09571618 0.46104747
C 0.10440058 1.5117451 0.112474844
C 0.08771703 2.6854758 -0.1367224
H -0.5362711 -2.4873266 -1.4451848
H -0.56146103 -0.121702865 1.2767421
H 1.1372745 -0.20649083 0.7868432
H 0.07321708 3.7294445 -0.36494464
