10

C 0.8541166 0.6180849 -0.1691193
C -0.64618987 0.65871423 -0.06934743
N 0.3443968 -1.221556 -1.2278273
N 1.2229161 -0.35394073 -1.2207229
C 0.10848134 -0.117227614 0.9089362
C -0.6290933 -0.8416147 -0.18235028
H -1.4949074 -1.4688337 -0.012590746
H 1.4971789 1.4689949 0.010673336
H 0.14731152 -0.1677154 1.9854
H -1.4042108 1.4250941 -0.023051493
