10

C -0.14700371 0.90167927 -0.14710279
C -0.70360927 -0.37981025 -0.70569360
N 0.41543464 -1.18033106 -1.24603398
N 1.40617227 -0.90368811 -0.56301824
C -0.47728729 -0.18586096 0.76767710
C 0.96622389 0.08286936 0.44686632
H -0.39312405 1.94991626 -0.21566773
H -1.68241546 -0.46432986 -1.16028233
H -1.06956855 -0.28378104 1.66347042
H 1.68517729 0.46333635 1.15978512
