9

N -1.056536 0.35774145 0.29672366
C 0.27263665 1.0651741 -0.6510406
C 0.3777935 0.14507245 0.5113973
C 0.78652513 -1.2386225 0.29345888
N 1.121153 -2.328379 0.10167595
H 0.7355935 0.53397626 1.465001
H -1.4717655 -0.37201804 -0.27833292
H 0.24816146 0.45780224 -1.5671843
H -1.0135617 1.3792531 -0.17169905
