9

N -0.55034494 1.8761356 0.020931832
C 0.037153177 0.8008805 -0.24983616
O -0.29414946 -1.4982023 0.6838993
C 0.8807658 -1.0264633 1.0804052
O 0.98610944 0.21418564 0.58489156
C -0.13430536 0.1595634 -1.540849
N -0.25123236 -0.334839 -2.5783417
H -0.2963439 2.2005029 0.95430964
H -0.37765247 -2.3917632 1.044589
