9

N 1.14543296 -1.86765521 1.42229674
C 0.97168248 -0.90233791 0.81199351
O -1.49415681 -0.61292812 -0.43665408
C 0.76977107 0.32844688 0.06916083
O -0.39295125 1.02920382 0.38303296
C -1.62962398 0.55787740 0.17247938
N 1.65389338 0.76880326 -0.70482681
H -2.38483270 -0.95445817 -0.59657463
H 1.36078540 1.65304808 -1.12090807
