9

N 2.1613312 0.34781408 1.497539
C -1.2066221 1.0360984 -0.13557008
O -1.0189309 -0.21196418 0.30394888
C 1.3212106 -0.15339255 0.88404447
O -0.24393088 1.610759 -0.74331826
C 0.24534927 -0.7959753 0.14716919
N 0.44182834 -1.8603606 -0.48669252
H -1.2823229 2.203404 -0.53021103
H -0.41791263 -2.1763825 -0.9369095
