12

N -0.45464954 -0.4509616 1.9183655
C -0.14133275 -0.13562025 0.5991688
C -0.92643934 0.72251004 -0.17748277
N -0.59530735 1.0806335 -1.4130734
C 0.53985614 0.5812183 -1.8946062
N 1.3652921 -0.2450438 -1.2555927
C 1.0230969 -0.59613216 -0.024073692
H -1.4321392 -0.38460776 2.1628766
H -0.038183358 -1.3039138 2.2643907
H -1.854817 1.1315095 0.22090274
H 0.8186622 0.8730417 -2.9036272
H 1.6959611 -1.2726338 0.5027517
