11

C -0.8794405 -0.80148 -1.1909292
C -0.1283361 -0.06259801 -0.14247328
C -0.26344255 1.1339322 0.46933275
N 0.7602134 1.304157 1.3965808
C 1.4460918 0.2204474 1.2977607
O 0.98274845 -0.66302675 0.39302945
H -1.2559835 -1.7544652 -0.8089526
H -1.7303256 -0.19772875 -1.5184888
H -0.24728823 -1.0093269 -2.0592287
H -1.0191437 1.8918577 0.31821525
H 2.3349066 -0.061768714 1.8451535
