11

C 0.116721675 0.17246322 0.18866004
C -0.7124174 -0.76119685 -0.36721927
C 0.7947831 -1.5808057 -0.82726485
N -0.15184818 -2.2255764 -0.39030463
C -0.24714471 1.4834874 0.7906775
O 1.3591651 -0.22664502 0.1432766
H -1.7034842 -0.6825863 -0.78636736
H 1.5238467 -1.6111641 -1.6320207
H 0.35319716 2.288407 0.35677746
H -0.023249459 1.4383612 1.8611711
H -1.3095698 1.7052561 0.66261405
