17

C -0.038764205 0.6641204 2.2631352
N -0.31117004 -0.2635825 1.1805863
C -1.3313241 -1.6453716 -1.0391718
O 1.0290003 0.924242 -0.17158768
N -0.33257696 -0.60622406 -1.1796755
C 0.08038026 -0.025332088 -0.12215835
C 1.5837277 1.1608064 -1.4607466
H 1.0236884 0.9147722 2.276943
H -1.1704723 -0.7795562 1.2589151
H -0.6131972 1.5957185 2.184314
H 2.3314857 1.9424304 -1.3100158
H 0.81691897 1.4957238 -2.1647189
H 2.0511441 0.25561762 -1.8587962
H -0.99880266 -2.4788551 -0.40170342
H -2.2854607 -1.2704273 -0.6336838
H -0.28899348 0.17357706 3.2075794
H -1.5455849 -2.0576594 -2.0292153
