17

C 0.28627473 -0.04308549 -0.06396985
N 0.5043737 -0.80914533 1.046456
C -2.1097765 0.14098798 0.25516686
O 1.2344224 0.23391995 -0.8634709
N -0.8713072 0.43457773 -0.42087412
C 0.047974605 1.2251611 -2.1205933
C 1.8497258 -1.1342643 1.4754193
H 0.88508886 0.9842207 -2.7704315
H -2.9439807 0.42524204 -0.3975274
H -2.233531 0.7019781 1.1955131
H -0.9047436 0.9780829 -2.5799918
H -0.20007837 -0.74953747 1.7622893
H 0.085986935 2.227764 -1.7124186
H 2.3415926 -0.2987071 1.9898548
H 1.8169309 -1.998436 2.1419208
H -2.2277195 -0.93110144 0.4713651
H 2.438766 -1.3876572 0.5912924
