10

N 1.4797561 0.500602 0.91946495
C 0.22285683 0.6234385 0.37706518
O -0.4495962 1.6293186 0.4407568
N -0.23122111 -0.5477051 -0.23157997
C -1.4574956 -0.6402157 -0.87107617
O -1.8535556 -1.6691389 -1.359229
H 1.8805896 1.3739796 1.2262554
H 2.1259441 -0.17075711 0.53422827
H 0.28758422 -1.4119717 -0.16003661
H -2.0048625 0.3124495 -0.8758488
