9

O 1.32581413 0.32652191 -1.71374351
C 0.50698329 0.14430786 -0.68284033
N -0.61613378 0.70746277 -0.49759950
N -0.00648231 -0.78776926 1.20006842
C -1.04625112 0.14144987 0.74988412
N 0.90614497 -0.77730947 0.34542085
H 2.10148240 -0.23935102 -1.58032834
H -1.18761594 0.89949133 1.52720811
H -1.98394150 -0.41480405 0.65192995
