12

N -0.9437962 -0.18703397 -0.19125135
C 0.19292018 -0.04410178 0.594513
N 0.89378804 0.37257797 -1.2998532
C 1.3814629 0.3021329 0.025419625
O -1.0765752 0.10990771 -2.5365663
C -0.43254977 0.08764364 -1.3541914
N 0.12027642 -0.2560845 2.0486214
H -2.0004635 -0.10523317 -2.3470178
H -0.5126638 0.39681244 2.515525
H 1.0843675 -0.08184711 2.3499296
H 1.4504025 0.61246413 -2.1056635
H -0.15716897 -1.2072382 2.3005347
