10

O 0.43418646 2.6820786 0.7115193
C -0.11837162 0.28411207 0.47150004
C 0.0998743 -1.8301827 -0.29252723
N -1.0872347 0.32391295 1.2216502
O -0.9182583 -2.0955958 0.33692366
C -0.27704874 1.9021088 0.17946874
C 0.6685732 -0.51058316 -0.3352
H 1.5644459 -0.20465542 -0.85010535
H -1.0201439 2.0637138 -0.6059225
H 0.65397733 -2.6149094 -0.83730674
