10

O 1.3671566 -2.1131194 2.0673118
C 0.49024117 0.103243925 0.033745073
C 0.8595369 -2.0767014 0.9824493
N 1.0083077 -0.9855705 0.10339226
O -1.6750631 0.5531339 -1.6945784
C -1.1553665 1.4585137 -1.0848349
C -0.041450344 1.3022017 -0.13280198
H 0.35819486 2.1453571 0.41692573
H 0.27724582 -2.8953872 0.5268836
H -1.4888035 2.5083277 -1.2184926
