10

O -1.09274795 -0.03795975 -1.97718238
C -0.70507199 0.27944052 0.47020229
C 0.45194603 0.07719181 1.18916352
C -0.33602501 -0.05566174 -0.85652225
N 0.92294080 -0.42797876 -0.95350685
N 1.38467420 -0.33845786 0.31042965
H 0.67142540 0.19650365 2.24008598
H 2.34607506 -0.57700880 0.49040271
H -1.97829381 0.26837511 -1.74984426
H -1.66492308 0.61555582 0.83677181
