10

O -1.421992 -0.039617952 -1.7553229
C 0.6739429 0.13294686 1.0735221
C -0.5103522 0.5364385 0.49807435
C -0.4954082 -0.0928684 -0.77174324
N 0.58838916 -0.81417316 -0.96699595
N 1.28889 -0.660557 0.17512831
H -1.2680821 1.1818098 0.9199773
H -2.1430285 0.5348207 -1.4727601
H 1.1114881 0.34934396 2.037146
H 2.1761525 -1.1281432 0.26297408
