10

O -1.9624029 0.993056 -0.18750517
C -0.80575943 0.3523719 0.04166567
N -0.47685036 -0.29792303 1.1178987
C 0.8007224 -0.76632196 0.85687983
C 1.2172836 -0.38564867 -0.38051477
N 0.15597942 0.34853777 -0.9084446
H -2.4893887 0.8663466 0.61300087
H 1.3373122 -1.3524061 1.5902314
H 2.128154 -0.5502279 -0.9339464
H 0.09494959 0.7922153 -1.8092656
