11

N -0.27444735 0.96301454 -0.51233435
C 1.5000185 -0.23502493 -0.53883785
C -0.48866072 -0.14829722 0.41027454
C 0.7099452 -0.81283784 0.51687706
N -1.8005505 -0.10277177 0.5250325
N 0.9758943 0.7633337 -1.1989971
H -1.551163 0.7739 -0.548972
H 2.481692 -0.58582324 -0.84540796
H 0.9405621 -1.7066393 1.0758109
H -0.17401236 1.8331263 0.01130541
H -2.3192785 -0.74198025 1.1052489
