11

N 1.5638412 0.3920452 -1.2406131
C -0.89879215 -0.47462684 1.1468934
C 0.46613267 -0.5904981 0.8382648
C 0.6732569 0.08043694 -0.38543615
N -0.7222002 0.57683873 -0.7253515
N -1.6723281 0.17805628 0.31135023
H 1.2243426 -1.0955131 1.418514
H 2.473526 0.034810882 -0.961792
H -1.0131493 0.19359818 -1.6265246
H -0.72086847 1.5943183 -0.80692124
H -1.373761 -0.88946646 2.0316164
