11

N 0.34626843 0.61310089 -1.90856624
C 0.25077436 0.16905048 -0.71891594
C 0.92912180 -0.57793776 0.26716296
C 0.09738576 -0.62085993 1.39768070
N -1.06457218 -0.01353158 1.33859155
N -1.04739715 0.53208057 -0.01733373
H 1.23166850 0.34028452 -2.32632448
H -1.14857456 1.54682344 0.02716467
H 1.90508079 -1.02792370 0.15932840
H 0.33939192 -1.12527173 2.32903663
H -1.83914812 0.16418465 -0.54782467
