11

N 1.4812522 0.4542652 -0.2706164
C -1.6438388 0.18629579 -0.46164924
O 1.1965125 -1.7895883 -0.57463855
C 0.78200006 -0.7091788 -0.20064051
C -0.63521165 -0.57768345 0.3207109
O -0.8298568 0.6580289 1.0469047
H -1.8824002 0.77000004 0.8526812
H 1.1563252 1.2783804 0.20848887
H 2.4433901 0.401022 -0.56838024
H -1.1284336 0.79930025 -1.216092
H -0.93973875 -1.470842 0.86323136
