11

N 0.74457084 0.94877398 -1.02803914
C -0.49681029 -0.23544069 1.72282980
O 0.70147885 -1.10214117 0.68717908
C -0.61667426 -0.58546001 0.28061901
C -0.50163288 0.45107191 -0.81219011
O -1.50059934 0.83590940 -1.38837037
H -1.31677172 -1.36682929 -0.01450715
H 0.57581779 -1.98416135 1.06720860
H 0.01549197 0.74705757 1.73023651
H 0.83930184 1.71285954 -1.67895560
H 1.55582703 0.57836016 -0.56601109
