11

N 0.82827365 1.3488092 -0.078094244
C -0.38878292 -1.4563845 0.9990933
O 0.526339 -1.2665931 -0.54563
C -0.6940438 -0.5480584 -0.14047344
C -0.46904644 0.94372857 -0.06423345
O -1.4174552 1.6923279 0.07044184
H 1.5866377 0.7091675 -0.23479582
H 0.3049748 -0.87703216 1.6400788
H 1.0166503 2.3277369 0.07259667
H -1.5557196 -0.76658386 -0.77097744
H 0.26217255 -2.107118 -0.94800633
