10

O 0.21511887 2.2110944 0.39518207
C 0.11846796 0.8824409 0.1639456
C -1.0027076 0.1944065 -0.21389669
N -0.57107097 -1.1174134 -0.31284586
C 0.74316293 -1.1398897 0.00066181837
N 1.193728 0.05946888 0.29548496
H 1.1313477 2.3744588 0.65249103
H -2.0190115 0.49126682 -0.41312963
H -1.1380068 -1.908059 -0.5693475
H 1.3289714 -2.047774 0.0014543098
