10

O 2.0085115 -0.33711997 -0.3959104
C 0.6776926 -0.23883225 -0.16638555
C 0.1718826 0.99766743 0.42837784
N -0.1728616 -1.1578019 -0.4142116
C -1.3678054 -1.481306 -0.14678878
N -1.0898311 1.1234769 0.58111924
H 0.9249083 1.7302728 0.7279646
H -1.315771 1.9956119 1.0538071
H 2.2106435 -1.2436514 -0.6605696
H -2.0473697 -1.3883176 -1.0074028
