10

O 1.541321 1.0660003 0.31467342
C 0.3970832 -0.9991879 0.62070096
C -1.6565971 1.3011166 -0.97735614
N -0.5863263 0.83654994 -0.5657205
C 0.3988495 0.36557153 0.07928583
N -0.57969296 -1.7874732 0.41306856
H 1.2951428 -1.2270582 1.2050356
H -1.7927399 1.1280485 -2.0559404
H 1.4020942 1.9910278 0.08059515
H -0.41913465 -2.6745958 0.88565767
