12

C -0.35116988 -1.1044276 0.9804009
C -0.26104224 -0.6292105 -0.46756378
N -0.26395488 0.8191683 -0.5834214
C 0.87811637 1.5502399 -0.49598852
O 1.9963164 1.084385 -0.4092049
H -0.34338558 -2.1973305 1.0269228
H -1.2715214 -0.7486012 1.457002
H 0.5043713 -0.7264605 1.5494039
H -1.0966495 -1.0177428 -1.0592488
H 0.6678568 -0.98217905 -0.92510253
H -1.1425419 1.3130082 -0.5387008
H 0.68360454 2.6391506 -0.53449875
