12

C -0.91033323 0.04349325 1.03106369
C -0.18200873 -0.87653244 0.13290054
N 0.50895168 -0.26780238 1.25033765
C 0.64265041 0.71847283 -1.41156722
O 0.22521642 -0.60838811 -1.15647210
H -0.43210529 -1.93552710 0.19580377
H -1.66231965 -0.37899571 1.69618678
H 0.63936563 -0.92832685 2.01128948
H 1.11022940 0.70250181 -2.39867996
H 1.36501519 1.04889988 -0.66014090
H -1.09370168 1.07469058 0.74478966
H -0.21096011 1.40751411 -1.43551127
