12

C -0.7364113 0.34731096 1.1093981
C 0.8510203 0.48924974 -1.3993298
N 0.36831924 -0.6196212 1.1723927
C -0.57379204 -0.69582146 0.07545873
O -0.13988727 -0.5034082 -1.218728
H 1.6728454 0.34997153 -0.69162965
H -0.41523397 1.3684813 0.9277363
H 0.4310585 1.496879 -1.2883457
H 1.2140005 0.3696747 -2.4226694
H 0.19707869 -1.3470564 1.8607696
H -1.2974261 -1.5108794 0.072444096
H -1.5715722 0.25521967 1.8025032
