11

N 2.262399 -0.6394544 0.72230244
C 1.1094882 -0.31757668 0.34185225
O 0.5098316 -0.8992967 -0.72443295
C -0.85520935 -0.49993178 -0.7558975
C -0.8364046 0.8032445 0.037190903
O 0.28565198 0.61930764 0.8979507
H 2.5479472 -0.060145598 1.506474
H -1.471151 -1.2682906 -0.27463338
H -1.1612872 -0.37686208 -1.7960784
H -0.6641653 1.6765844 -0.6029128
H -1.7271001 0.96242136 0.6481846
