11

O 1.30986411 -0.50060312 1.66899981
C 0.39096306 0.31065960 -1.73298780
N -0.78930780 0.95307482 0.47247227
C 1.39053492 -0.32295413 0.47909559
C 0.26045168 0.28874598 -0.31839313
C -1.10679601 -0.35767519 0.08458779
H -0.48780765 0.88858514 -2.09069794
H -1.86205261 -0.46654584 -0.68872429
H -0.95928395 -1.18281925 0.78524283
H 2.29643754 -0.57185349 -0.09658823
H -0.44300381 0.96138549 1.43699281
