11

O 1.4810761 0.56463534 -1.4478785
C 0.48063836 0.83733654 -0.85229075
N 0.44058108 0.31125107 0.88390213
C 0.48547843 -1.1391414 0.5987941
C -0.4748384 -0.34749585 -0.16979076
C -1.672874 -0.2079677 -0.77250344
H -0.08615049 0.6261115 1.6906499
H 1.4328914 -1.4543282 0.1639832
H 0.076481946 -1.7851002 1.3716387
H -2.1014695 0.80164033 -0.63657105
H -0.061814915 1.7930585 -0.8299338
