12

C -0.61335563 -0.24521915 1.14480314
C 0.12698392 0.17807476 -0.10692614
C -0.55315154 0.25418251 -1.40127900
O -0.28281813 1.42224564 -0.63807103
N 1.55114239 -0.02282200 -0.14541785
H 1.75542484 -1.01844533 -0.16805376
H 1.97454168 0.34496420 0.70095271
H -0.23759217 0.31355294 2.01046242
H -0.47099188 -1.31377343 1.33898605
H 0.04026120 0.15209301 -2.30832613
H -1.60566271 -0.01993857 -1.47887445
H -1.68478225 -0.04491459 1.05174409
