9

O -0.23731369 -1.21473947 1.74221557
C 0.33911474 0.34103531 -1.28512699
C 0.11735049 0.27517315 -0.10872737
C -0.18867316 0.12908818 1.32173423
C 0.80443948 0.47335405 -3.74834313
N 0.58599157 0.41417990 -2.58860695
H -1.12609274 0.66321413 1.53927684
H 0.59966613 0.59991873 1.91569522
H -0.89448285 -1.68122391 1.21188263
