9

N -0.19360680 1.50070490 -1.21761978
C 0.28407226 0.53000276 -0.58656898
O -0.04638875 -0.79683908 -0.85057908
C 1.34224683 0.71799387 0.39636887
O -0.82496891 -0.90058208 1.13928210
C -0.60499199 -1.62668960 0.04684528
N 2.20347090 0.87115843 1.15082060
H -1.24135754 -1.48620186 1.78614023
H -0.91847589 1.19045290 -1.86468917
