10

C -0.9856098 -0.2671714 0.4786413
C 0.87178177 -0.8632252 -0.49175212
N 0.57526004 1.410328 -0.4214288
N 1.2285274 0.41677237 -0.7442328
C -0.49468336 1.0944749 0.59317535
C -0.5105102 -1.1964564 -0.38046694
H -0.9489003 -2.148738 -0.6585208
H 1.6823243 -1.5743977 -0.36566925
H -0.12043726 1.3171066 1.6013862
H -1.2977525 1.811307 0.38886794
