10

C 0.53774632 1.22610257 0.04410493
C -1.16061728 -0.52023955 -0.46819021
N 1.56669312 0.14128528 -0.15186336
N 1.12471803 -0.98061056 0.10135826
C -0.18575565 -1.28719994 0.23578071
C -0.81701597 0.75563003 -0.18279193
H 0.80268268 2.00112699 -0.68366956
H -2.10587647 -0.89996911 -0.84052150
H -0.42331134 -2.10795341 0.90553698
H 0.66073652 1.67182761 1.04025589
