12

O -0.6649832 -1.4518954 0.88111013
C -0.06090333 -0.2237146 1.1980462
C 0.44459304 0.4536454 -0.073447205
O 1.326185 -0.4260259 -0.71897954
C -0.7090011 0.77401394 -0.99781543
O -0.7231799 0.3789134 -2.137289
H -0.029100476 -1.9106838 0.31304568
H 0.7842062 -0.34345543 1.8909471
H -0.8178928 0.39788908 1.6885642
H 0.9397543 1.4045223 0.18751581
H 1.0294595 -0.4614636 -1.6443348
H -1.5191374 1.4082544 -0.58736277
