13

C 0.5864667 -1.5835211 -1.1659722
N 0.23075862 -0.6433585 -0.12567317
C -0.053642046 0.6596567 -0.3785012
O -0.07789673 1.1697385 -1.4856468
C -0.33780363 1.4771984 0.87859535
O -0.56612694 0.6911554 2.0366483
H -0.1097981 -2.4274132 -1.1856003
H 0.5362868 -1.0551233 -2.1193151
H 1.6028647 -1.9623752 -1.0224267
H 0.27257702 -0.91368836 0.84595597
H -1.1689556 2.1569395 0.65551007
H 0.5475761 2.090296 1.080809
H -1.4623072 0.3404952 1.9856167
