13

C -0.9059753 0.5281732 0.35489562
N -0.57160574 1.8249024 0.56697375
C 0.3646357 -1.6076728 -0.05872331
O -1.8782674 -0.02301571 0.8376997
C 0.06626178 -0.20955089 -0.57559794
O 1.2446414 0.5481301 -0.8302172
H -1.214423 2.4164402 1.0691878
H 1.837323 0.43173254 -0.07622834
H 0.17919783 2.2297761 0.029712971
H 0.9872827 -2.1465802 -0.77862626
H -0.44147673 -0.28008974 -1.5437535
H -0.5674198 -2.1520083 0.10596584
H 0.8998256 -1.5602373 0.89871085
