13

C 0.46262252 -1.54883989 -0.32877762
N -0.75697626 1.64785831 0.83066913
C 0.16534925 -0.08072633 -0.58801195
O 1.32246606 0.74299374 -0.48773274
C -0.97877543 0.41786133 0.30512247
O -1.97941330 -0.24748203 0.50083399
H -0.45023132 -2.13888292 -0.43220969
H -0.18389032 0.04339803 -1.61889710
H 1.21813190 -1.90671130 -1.03411752
H 0.84192925 -1.69256750 0.69143182
H -1.50227980 2.10289528 1.33347520
H 0.04199256 2.17630591 0.51655159
H 1.79907458 0.48389743 0.31166234
