12

N -0.64841360 0.81929150 -0.14697072
C -1.60996011 0.03851984 -0.92641323
C 0.46117067 0.36045916 0.12997769
O -2.26824786 0.84682190 -1.84932602
C 1.67683315 0.00269371 0.47896101
N 2.03498888 -0.55674607 1.72345789
H 2.66933137 -1.33907773 1.61341810
H -1.11793821 -0.75656018 -1.49530651
H -2.30918820 -0.40916258 -0.20429050
H 1.22855704 -0.85682494 2.25409877
H 2.48551483 0.23256583 -0.20767447
H -2.60264789 1.61801936 -1.36993187
