12

N 1.9433756 -0.6678238 -0.22047634
C -0.21963136 -0.55209 1.0873288
C 1.0105202 -0.8067999 0.5098975
O 0.40474543 2.239184 -1.6116029
C 0.5003275 1.1871942 -0.8299248
N -1.3905375 -1.2991148 0.830774
H -0.22696756 -0.012633952 2.033796
H -1.2811526 -1.9324701 0.048648324
H 0.94378114 1.396235 0.12164446
H -1.7066993 -1.8321136 1.6359775
H -0.014527419 2.014824 -2.4527209
H 0.036765736 0.26560917 -1.1533419
