10

O 0.99879754 1.32133507 -1.35587119
C 0.76616711 0.33441238 -0.39255208
C -0.71413608 0.15135667 -0.17253950
O -1.57082110 0.66804742 -0.82512779
C -0.18359573 -1.30238511 1.55877784
O -1.13789476 -0.71365249 0.86925430
H -0.77435085 -1.90858105 2.28009894
H 1.24973838 0.61207975 0.55262556
H 1.19362581 -0.63911564 -0.68031668
H 0.17246946 1.47650295 -1.83434911
