11

C -1.3052893 0.10422283 -0.7837756
O 0.06980561 -0.018734653 -1.0854415
C 0.81763405 -0.5308485 -0.017541302
C 1.0189426 0.49279684 1.086549
O 1.2821685 0.20387906 2.225624
H -1.7499318 -0.8719654 -0.54006916
H -1.482104 0.79020655 0.058383904
H -1.7908778 0.50613177 -1.673382
H 1.808207 -0.7732027 -0.42060435
H 0.38517645 -1.4497026 0.4065606
H 0.9462683 1.5472168 0.7436964
