11

C -0.39127557 -0.94327278 0.25452089
O 0.52030781 0.98248317 -0.67654579
C 0.23746154 -0.36622338 -1.01926890
C 0.18753230 1.15786962 0.68558346
O 0.13995039 -0.11344441 1.27108435
H -1.48876226 -0.86635036 0.22414338
H -0.79304526 1.65547683 0.76856734
H -0.44258910 -0.40204653 -1.87802093
H 1.17191734 -0.87614500 -1.28099165
H -0.10372464 -1.97464969 0.46607964
H 0.96222707 1.74630252 1.18484820
