10

C 0.5972828 1.3868316 -0.58201957
O -0.40405434 0.38694146 -0.38532782
C -0.030782016 -0.6240496 0.43062407
O 1.0501561 -0.7143081 0.96359247
N -1.0639994 -1.5057231 0.5800253
H 0.8555013 1.8655595 0.366631
H 0.15029572 2.1103365 -1.263962
H 1.4977318 0.9520857 -1.0236946
H -1.8288556 -1.463974 -0.07358662
H -0.8232764 -2.3937 0.98771787
