10

C 0.35751409 0.20300695 -0.91410295
O -0.13912576 1.49478065 -0.61462847
C 0.10448652 -0.83216575 0.17986071
O 0.25278378 -2.02109988 -0.01969417
N -0.28385095 -0.28179833 1.35948212
H -0.25166474 0.72066289 1.46457050
H -1.09554532 1.48795531 -0.74629971
H 1.44126100 0.30537729 -1.02354726
H -0.03612621 -0.19904929 -1.85475373
H -0.34973244 -0.87766988 2.16911305
