10

O 0.19649308 0.88224562 -1.02854122
C -0.08286248 -0.64534960 0.74048501
C -1.03928513 0.88950007 -0.48196482
N -1.31442368 0.11020902 0.47520403
C 0.93523967 -0.12495888 -0.30112293
H 0.24135623 -0.46502912 1.77050254
H -1.72479934 1.59925670 -0.93560054
H -0.28238843 -1.71656005 0.63825044
H 1.81201263 0.35653021 0.13869788
H 1.25865747 -0.88584423 -1.01591036
