13

C 0.58410907 -1.5824561 -1.1657776
N 0.23019153 -0.6429946 -0.12607747
C -0.05232622 0.6596889 -0.38009012
O -0.0765701 1.1706276 -1.48592
C -0.33480898 1.4762148 0.8786553
O -0.5638252 0.6935511 2.038359
H -0.11077851 -2.4284725 -1.1811712
H 0.52989614 -1.0557522 -2.1186595
H 1.6011399 -1.9621892 -1.0248036
H 0.26859033 -0.91234577 0.8454151
H -1.1667454 2.155022 0.65208185
H 0.54940146 2.0885847 1.0832416
H -1.4582741 0.34052116 1.9847468
