13

C 0.24472438 -1.61727271 -0.22706286
N 0.17012162 1.92303387 0.50139807
C -0.51573173 -0.30150282 -0.15104251
O -0.63914345 0.33205584 -1.41818634
C 0.09818593 0.62879095 0.90208433
O 0.47349412 0.21825057 1.98550173
H -0.25468191 -2.29800270 -0.92241459
H 0.22949314 0.31250131 -1.84194292
H 1.27151550 -1.45009963 -0.57889350
H 0.30163617 -2.07376022 0.76239368
H -0.27939956 2.19269368 -0.35940889
H 0.44372987 2.62311193 1.17304933
H -1.54394418 -0.48980018 0.17452463
