12

O 1.52154663 -0.76211574 0.86152324
C 0.46270897 -0.46596428 1.37933662
C -0.84885738 -0.51343334 0.61128546
O 0.46226886 -0.21754992 -1.74045510
C 0.01314551 0.92102511 -1.08518835
O -1.01231394 0.68104385 -0.12767688
H -0.84693471 -1.39452649 -0.04275940
H 0.42774633 -0.07383552 2.41276605
H -1.69885861 -0.55343954 1.29919652
H 0.85298830 1.43700505 -0.59084904
H 1.11648323 -0.64000084 -1.15670453
H -0.44992329 1.58179153 -1.82047441
