10

N 0.91416866 0.843348 -1.4062915
C 0.43399656 0.23509759 -0.34726065
N -0.05829551 1.1831659 0.43626675
O -1.5859458 -1.606193 1.6437869
C -0.9363649 -0.7770335 1.0802147
O -1.0616542 0.5646547 1.2427111
N 0.069544025 -0.9914765 0.121913664
H 0.16934139 -1.877297 -0.3453478
H 1.7852355 0.5566789 -1.831185
H 0.26997423 1.8690549 -0.59480846
