10

N -1.09596030 0.23885717 1.07119447
C -0.15402449 0.83315283 0.32966246
N 0.26836947 2.01843114 0.18302907
O -1.09798895 -1.15590466 0.73329098
C -0.21256419 -1.48752368 -0.16272966
O 0.01967972 -2.54647909 -0.65603855
N 0.53151340 -0.23627924 -0.50586415
H -0.25756027 2.65336267 0.78305274
H 0.46947742 -0.01013368 -1.50545672
H 1.52905807 -0.30748303 -0.27014064
