10

N -0.31889206 1.4725897 0.36800373
C -0.469892 0.5302034 -0.5697634
N -1.035407 0.46173406 -1.7012701
O 1.3255836 -1.1126432 1.9799452
C 0.7409466 -0.35782975 1.267812
O 0.4093931 0.8875291 1.4574294
N 0.23776446 -0.72757894 -0.09126808
H -0.4137655 -1.5205253 -0.060930625
H 1.0036776 -0.98566544 -0.72569644
H -1.4794087 1.3521866 -1.9242618
