10

N -0.25816944 0.98079587 0.24042020
C -0.80420744 0.58355747 1.45859536
O -0.85326222 -0.55093676 1.85201443
C 0.29733687 0.12743968 -0.64442764
C 0.69056080 -1.18361925 -1.05895206
N 0.85055335 0.14310784 -1.77452143
H 1.59205544 -1.63872701 -0.65141697
H -1.19089592 1.44833580 2.02975828
H -0.05480204 -1.87459481 -1.44883933
H -0.26916914 1.96464115 -0.00263190
