10

N -0.093916655 0.97278035 0.36234233
C 0.59893894 0.093570516 -0.3904531
O -1.7655225 -0.44117132 1.0723077
C -1.2510915 0.6449067 1.0647324
C 0.81081825 -1.2121668 -0.93404144
N 1.6247828 0.053311888 -1.1180722
H 0.25888056 1.9213055 0.416941
H 1.2472767 -1.9969052 -0.31793255
H 0.21459517 -1.5498722 -1.7799127
H -1.6447618 1.5142404 1.6240885
