10

N 0.80398333 -0.16149253 1.6797967
C -0.37904856 0.13866645 1.364027
O -0.79227006 0.20808706 0.08736587
C 0.21486121 -0.08545627 -0.8714523
C -0.38666996 0.04308225 -2.2016063
N -0.8145004 0.13168849 -3.2715466
H 0.9193938 -0.16140407 2.6900575
H -1.216946 0.3789365 2.0234
H 0.5964602 -1.100872 -0.72800696
H 1.0547367 0.6087641 -0.77203596
