9

O 0.52100265 1.0351504 -1.7149926
C -0.15156159 -0.34594366 0.13138644
C 0.22805578 -1.0335846 1.0446607
C -0.56278557 0.5169024 -0.9849194
C 0.69477016 -1.9572574 2.123281
N 0.5435519 -0.9715732 2.7851346
H -1.2128972 1.3108356 -0.5840858
H -1.1597087 -0.06455128 -1.6927367
H 1.0995725 1.5100218 -1.1077281
