11

O -1.2276462 0.74495006 -1.8839433
C 0.84953785 0.5640488 -0.45751303
N -0.48376837 -0.1821794 1.4430518
C -0.87403685 -0.6836052 0.1277959
C -0.6159637 0.36617017 -0.92510694
C 0.57013613 -0.5635806 0.54268533
H -1.5404153 -1.5370347 0.071499765
H -0.59008 0.8242219 1.5500951
H 1.5383911 0.30965167 -1.268414
H 1.2374694 -1.3696942 0.82670575
H 1.1363757 1.5270516 -0.026856225
