12

C 1.52500780 -1.73626675 0.60908116
C 0.22933959 0.11436947 0.65887652
N -0.63963244 1.02422716 0.18107578
N 0.61456621 -0.90871915 -0.03843764
C -1.19831887 0.91064317 -1.15267452
O 2.00901244 -2.73095713 0.12400678
H 0.57783733 0.31692344 1.68087657
H -0.39788380 0.92774716 -1.89866251
H 1.80225234 -1.42271267 1.64731776
H -0.90591439 1.79793473 0.76505212
H -1.88055991 1.74435440 -1.32231603
H -1.73570629 -0.03754398 -1.25419624
