11

O -1.2763513 -0.17788629 1.9268501
N -1.1699502 -0.766987 0.67339015
C -0.24077494 -0.23291752 0.007557241
C 0.2976873 -0.4658765 -1.3762399
O 1.2615535 0.58817434 -1.1717446
C 0.79218405 0.8550423 0.16370726
H -2.0088286 -0.66268045 2.3274608
H -0.38997555 -0.24463296 -2.2002184
H 0.7754285 -1.4367856 -1.5463686
H 1.5621747 0.67345047 0.9219344
H 0.39685255 1.8710992 0.27367157
