12

C -0.09320211 -0.41943900 -1.02317829
N 0.02301584 0.96992863 -1.45712203
C -0.74624079 0.68402448 -0.27511117
N 0.18022123 0.53636711 0.84427042
C 0.80718359 -0.65264418 0.18850456
O -0.34466438 0.25102460 2.08927838
H -1.76439551 1.04192902 -0.18009480
H -0.47868603 -1.15616296 -1.71484891
H 0.56507080 -1.57334013 0.73596171
H 1.88936063 -0.57961085 0.05073806
H -0.95586504 -0.50389759 1.99159026
H 0.91820192 1.40182103 -1.24998853
