12

C 0.6199617 0.6622533 -0.47215432
N 1.0205727 -0.19443631 0.45359373
C -1.0036714 0.8273401 -0.0821469
N 0.021290628 1.8634819 0.0716976
C 0.59625304 -1.4642704 0.15177503
O -1.406583 -0.0037734325 0.8021148
H 0.3810383 -1.7242588 -0.89862764
H 0.68934673 0.489596 -1.548757
H 0.28040832 1.9220604 1.0565289
H -1.588881 0.949186 -1.0006288
H 0.9769913 -2.259182 0.7868524
H -0.5867272 -1.0679966 0.67975193
