12

C -1.1205393 -1.0141189 -1.6997072
N -1.0001129 -0.58403534 -0.32206678
C 0.056168642 0.02228303 0.0095694335
N 0.24411769 0.46929607 1.3131971
C 1.3525583 1.1493638 1.7479508
O 1.5036174 1.5422025 2.8800876
H -1.9985162 -0.5367318 -2.148934
H -0.24267095 -0.78658015 -2.3240943
H -1.29619 -2.093893 -1.7256142
H 0.89401203 0.24738708 -0.66336405
H -0.49354717 0.28315157 1.9841502
H 2.1011026 1.3016753 0.94882506
