10

N -0.65754753 -1.218906 1.1904472
C -0.17863244 -0.3068136 0.25743777
C -0.78185385 0.7281198 -0.37918487
O 0.14041251 1.266724 -1.2509559
C 1.2317288 0.51797605 -1.0795231
N 1.1205946 -0.42444545 -0.20701647
H -1.3184301 -0.83446467 1.8494763
H 0.10458321 -1.6842798 1.6656694
H -1.7563363 1.1884313 -0.36469755
H 2.0954812 0.7676584 -1.6816529
