9

N -0.88566357 -0.57361656 -1.2255173
C 0.23388384 -0.14930598 -0.5535095
C -0.052541073 0.36799893 0.78853285
N 0.9585665 0.8032854 1.4844126
N 1.8352709 1.1756845 2.0860064
O 1.3483632 -0.16286002 -1.0400655
H -0.70412016 -1.0892773 -2.0744357
H -1.7059214 -0.8405102 -0.7063029
H -1.0278381 0.46860102 1.2408794
