9

O -0.29629954 -1.09550166 -2.67053899
C 0.14559042 -0.48717836 -1.77708610
N 0.73839630 0.20372396 -0.97063215
C -0.69280561 -0.14496101 1.00774020
C 0.53787433 0.50619701 0.40646697
O -1.42818890 -0.86238720 0.38470445
H -0.86561682 0.09134196 2.07551151
H 0.45186378 1.59279264 0.54558116
H 1.40918611 0.19597272 0.99825296
