9

O -0.92880994 -1.1305057 -1.9712567
C -0.4075097 -0.61995226 -1.0182877
N -0.89811105 0.32080537 -0.14073856
C 0.06357241 0.62769365 0.8192031
C 1.1290503 -0.123524114 0.5272719
O 0.8697512 -0.89084935 -0.5839255
H -1.8229799 0.7046577 -0.22458401
H -0.10461845 1.3428389 1.6088296
H 2.0996552 -0.23116413 0.9834879
