9

O -0.61686814 1.0975904 0.36837503
C 0.7839498 -0.39415875 -0.4458547
N -0.45570567 -1.1325324 -0.14577243
C 0.5697814 0.94121414 -0.14653946
C -1.3089384 -0.21922146 0.3812161
O -2.4244893 -0.27329022 0.8082739
H 1.2038223 1.8097762 -0.27481902
H 0.73422605 -1.009225 0.57642
H 1.514222 -0.82015306 -1.1212994
