10

O 1.92598201 -0.35490038 -0.67213686
C -0.35927265 -0.35930775 -1.37349477
C 0.72076670 0.29372921 -0.52311264
N 0.26201984 0.30482934 0.85397394
N -1.96481871 -0.40024016 0.22800560
C -0.94872626 -0.02288493 1.10719118
N -1.50723203 -0.59533440 -1.01244334
H 0.75588178 1.32992835 -0.90548628
H 2.41001890 -0.21840326 0.15783621
H -1.29461966 0.02258388 2.13966695
