10

O -0.37928373 1.0410129 -1.7896426
C 1.339438 -0.19906166 -0.6240055
C -0.07127384 0.19972149 -0.78423285
N 1.6551759 -0.76023287 0.53946453
N -0.98000884 0.059613686 0.2250127
C -0.40929067 -0.18043904 1.3814716
N 0.90643835 -0.45750332 1.5964409
H -1.2604613 1.3953874 -1.6017182
H -1.017625 -0.17127283 2.2816522
H 0.2168913 -0.9272256 -1.2244426
