11

C 0.117499255 0.31152114 0.31608754
C -1.2173631 -0.4502414 1.5966434
N 1.3162972 -0.330745 0.46067062
C -0.39631858 0.4819622 -1.0886085
N -1.3516666 -1.2162085 0.70370007
H 1.6507742 -0.39396742 1.4141287
H 0.2423097 1.2213899 -1.5872246
H 0.052388273 1.2101933 0.9176534
H -1.4244344 0.8480029 -1.0751095
H -0.36626074 -0.45732203 -1.6458251
H 1.3767748 -1.2245853 -0.012116137
