12

N -1.4509938 1.1885924 -0.7939864
C 0.92384404 0.6868795 -0.015186213
N 0.5408209 -0.22121736 -1.0940636
C 1.2432234 -0.7573063 0.11694111
C -0.50803334 0.3258503 -0.19156313
C 0.15712968 -1.3559797 0.95372236
N -0.9231034 -0.70504916 0.76870215
H -2.303484 0.6761485 -1.002372
H 2.2316885 -1.174224 -0.035880614
H -1.6826221 1.9613734 -0.18310706
H 1.5162114 1.5835211 -0.13954286
H 0.25531864 -2.2085884 1.6163363
