12

N 2.22760911 0.33285524 -0.69484185
C 1.02681966 -0.21247136 -0.91067725
N 0.19386402 -1.12080232 -0.28269309
C -0.61120457 -0.48697594 0.77882434
C -2.08134985 -0.39258657 0.64173190
C -1.42306184 0.73208082 0.54426186
N 0.03252000 -0.29143813 -1.67838096
H 2.54872135 1.06786098 -1.30423604
H 2.67172723 0.21575839 0.19966035
H -0.15099319 -0.70971665 1.74762513
H -3.01571740 -0.92969403 0.60840868
H -1.41893350 1.79512983 0.35031670
