12

N 1.3138114 -1.1621506 -1.5745302
C -0.02691779 1.1985964 1.1916
N -0.89037323 -0.61359996 -0.4521362
C 0.20276867 -0.47683457 -1.2885454
C -1.2975186 1.045947 1.45616
C -0.59993315 -0.14133874 0.9150889
N -0.497334 0.5390011 -1.5378859
H 2.0008857 -0.7492655 -2.1845815
H 1.5862877 -1.9319583 -0.9878109
H 0.8402682 1.8399576 1.1256512
H -0.3963596 -1.0104954 1.5499963
H -2.2355855 1.4621407 1.7869936
