11

C 1.5326756 1.0675871 -1.8474212
C -0.36916253 0.6878598 1.0063891
N -0.031109834 -1.4448562 -0.12838806
C -0.2971626 -0.04385122 -0.32802042
N 0.691377 0.59523696 -1.1763563
H -1.1502573 0.23429503 1.6221892
H 0.8652066 -1.564423 0.33546907
H -0.59524536 1.746484 0.85418636
H 0.58843225 0.61053103 1.533767
H -1.2520403 0.044090856 -0.8553723
H 0.017286455 -1.9329545 -1.0164423
