11

C 0.020839231 1.2290559 0.23792441
C 0.3361215 -0.24512684 0.1987372
N -0.017623791 -0.2968411 -1.9235437
C 0.964017 -0.87939113 -1.5972654
N -0.60284895 -1.0918653 0.7006524
H 1.3383305 -0.48159465 0.5389041
H -0.3457994 -2.0703104 0.7072884
H 0.7553283 1.7856715 -0.34694898
H 0.07112126 1.5531855 1.2848148
H -1.5451776 -0.9415072 0.36138383
H -0.97430825 1.4387242 -0.161947
