10

O -2.5164611 -1.4022186 0.4693969
C 0.9355593 0.23541568 -1.109927
C -0.736808 0.2812819 0.8740372
C -1.6778595 -0.6199729 0.6551743
O 0.8474854 -1.0385294 -0.4854554
C 0.6353818 0.10357804 0.32226002
H 1.4411553 0.3052487 1.0280118
H 0.12046336 0.46606195 -1.794799
H 1.9333283 0.5231788 -1.4343475
H -0.98224443 1.1459557 1.4756485
