10

O -0.20235275 2.23881402 -0.00958233
C -0.08574293 -0.00418912 0.97744739
C 0.05762295 0.24198148 -1.35864392
N 0.11958609 -1.02285631 -1.09658969
N -0.09670258 -1.24137640 0.21580441
C -0.09915244 1.04249690 -0.13358388
H 0.12544554 0.62176063 -2.36881817
H 0.33003992 -2.08183813 0.56805892
H 0.81782160 0.11085505 1.58862437
H -0.96656553 0.09435184 1.61728280
