10

O -0.38471025 1.6356816 -1.2199177
C -0.17016186 0.60565954 -0.3561803
C 0.51694125 -0.57255995 -0.5341093
N 0.410026 -1.2358929 0.65195984
N -0.28793555 -0.5673013 1.57084
C -0.65052605 0.55792016 0.97306836
H -0.033602208 1.3963991 -2.0865684
H 1.0515443 -0.980406 -1.3790401
H 0.78817594 -2.1375008 0.8827941
H -1.2397517 1.2980005 1.4971534
