11

N 2.0520103 -1.0822954 -0.16547634
C -1.052302 0.2445534 0.30105588
N -2.1320028 0.8105496 0.78845936
N 0.5464623 0.47400233 -1.1976085
C 0.906247 -0.34280244 -0.26525462
N -0.77823937 0.75963074 -0.8740405
O -0.048605617 -0.5573897 0.7249495
H 2.4448638 -1.1258832 0.76451236
H 2.7274973 -0.8235842 -0.87033534
H -2.796598 0.2640971 1.3229573
H -1.8693333 1.3791218 -0.52921885
