11

N 1.28751404 0.28152743 0.41205099
C 0.63925474 -0.19448362 -0.58299469
N 1.14884114 -0.64370575 -1.76527291
N 0.31131540 0.37566246 1.39826637
C -0.94313447 0.12514350 0.89469490
N -2.05142857 0.27114716 1.47228394
O -0.69821852 -0.34044866 -0.39595388
H 2.11044801 -0.37554476 -1.90271508
H 0.55774262 -0.50227890 -2.57010346
H 0.46067840 1.00813136 2.16563358
H -2.82301274 -0.00515020 0.87411042
