11

N 1.3529297 -0.11347725 0.25187343
C 0.5342009 0.3503045 -0.61503613
N -1.8053284 -1.0330186 1.4571074
N 0.8359469 1.0064918 -1.7715949
C -0.8026717 -0.6447635 0.8035177
N 0.525522 -0.8499145 1.0930052
O -0.7771686 0.07912965 -0.3872226
H -2.6726155 -0.75777656 1.0081655
H 0.8424425 -1.0509309 2.0259213
H 0.169305 1.7083536 -2.054667
H 1.7974371 1.3056018 -1.8110696
