9

O -0.5775296 -2.0102036 -1.0114512
C 0.5146887 1.1918647 0.24789865
N 0.72082704 -0.0918896 -0.5962881
C -0.38375348 -0.9832958 -0.43424493
C -0.60668516 0.80767673 0.88622636
O -1.168973 -0.4037566 0.4873329
H 1.1943871 -0.059496347 -1.490243
H -1.1691731 1.3119783 1.6597836
H 1.4762114 0.23712201 0.25098568
