9

N -1.5283428 -1.1766878 2.0634217
C -0.122136004 -0.8824435 0.102554366
C 0.25459024 0.45614475 -0.32622817
N -0.8776968 -1.0354695 1.1564789
N 0.97973734 0.7773488 -1.316437
O -0.26125562 1.4212322 0.4689575
H 0.1913479 -1.7809888 -0.4037863
H 0.055836674 2.254994 0.08904987
H 1.3079193 -0.034130044 -1.8340108
