11

O -1.20467 -0.43589061 -1.31522
C -0.595856 -0.23590982 -0.2045856
O 0.35883707 -1.1216539 1.6707422
C 1.7307383 0.29721776 0.07048265
C 0.59373635 -0.6342052 0.5340616
C -1.887522 0.36825207 -0.24907011
O 1.6155703 -1.0390197 -0.39100695
H 1.6643723 1.0734065 -0.6929655
H 2.4512777 0.46314594 0.8728771
H -2.0050187 1.4154688 -0.5076894
H -2.721465 -0.15081185 0.21237406
