11

O -1.93600766 -0.58260881 -0.36508226
C -0.96124914 -1.61689356 -0.69584307
O -0.24417960 -0.25628065 1.41541396
C -0.64910313 -0.44052240 0.07321036
C 0.19716957 0.64565400 0.41854201
C 1.40659340 1.40798877 0.25203815
O 0.09412872 2.00268872 0.46758534
H -1.11824977 -2.56015918 -0.17503316
H -0.70136404 -1.68197114 -1.74982692
H 1.82628640 1.57645895 -0.73765731
H 2.08597547 1.50564518 1.09665280
