11

O -0.33910839 -1.54819749 -2.42743850
C -0.67331506 -1.42756422 -1.27803492
C -0.14875043 -0.35841594 -0.37582362
C 0.90271366 1.34473753 0.44969610
N 0.10462419 0.82225036 1.54621812
C -0.51209900 -0.18008258 1.04297875
N 0.68772721 0.53838413 -0.73702340
H 1.96536392 1.33328909 0.71508222
H 0.62192650 2.38523952 0.25198424
H -1.20199768 -0.79694137 1.61509733
H -1.40708483 -2.11269921 -0.80273646
