11

N 0.8118873 -1.5964203 -1.0517389
C 0.82831454 -0.4609154 -0.04546581
C 0.7563008 -1.8854482 0.1668997
C -0.41184106 0.3649619 0.08690098
N -0.19741876 1.7238849 -0.03141418
N -1.5109891 -0.22762921 0.34472305
H 0.658421 -2.7423904 0.8165967
H 0.59861505 2.017663 -0.5787255
H -1.013071 2.3084207 -0.14395408
H 1.7748519 0.07169683 0.059996646
H -2.2950706 0.42617595 0.3761814
