11

N 0.18513877 1.60626580 -0.63037617
C 0.34006764 -0.79122893 -0.39865504
C -0.09183897 0.52040533 0.17636883
C 0.20644081 -1.98950187 0.39246101
N -0.60753432 0.53152824 1.34242948
N -0.69385875 -1.89908721 -0.47529063
H 0.24193123 1.43780614 -1.62431834
H 1.05304610 -0.74384762 -1.22336579
H -0.25258274 2.48263933 -0.38541653
H -0.89832891 1.47087823 1.61864449
H 0.51751886 -2.62585725 1.20751859
