11

N 0.46230248 0.34194294 -2.9268243
C 0.35831678 0.63161415 -1.813753
C 0.20964563 0.9665811 -0.3932192
C -0.5969728 -0.08821501 0.34272933
C 0.058673516 -1.182977 1.0532626
O -0.47606608 -0.0629161 1.750412
H -0.2809289 1.9426525 -0.30738404
H 1.1997727 1.0563343 0.06725095
H -1.6126016 -0.23316595 -0.024794966
H -0.46789607 -2.1238613 1.2054752
H 1.1457545 -1.2479895 1.0468456
