11

N 0.4845389 2.138721 1.6200067
C 0.06986292 0.171104 0.08135932
C -0.8742628 -0.15691942 -1.0577316
C 0.24253301 1.15819 0.91487026
C 0.7020283 -1.1812497 -0.17783079
O -0.2367908 -1.4321787 -1.2362908
H -1.933283 -0.25918332 -0.7886343
H 1.7352585 -1.1608818 -0.54312694
H -0.7788652 0.47833872 -1.9459008
H 0.61173517 -1.9149489 0.6328642
H -0.022754883 2.1590083 2.5004148
