11

N 1.2318528 -1.063227 -2.4058526
C -0.44554737 -0.6819186 1.0038668
C 0.32314926 -0.117221765 -0.1663008
C 0.8092807 -0.6236845 -1.3465885
C -0.0044257427 1.24826 0.37146443
O -0.7557957 0.64757353 1.4443127
H -0.1851096 -0.6380952 -1.9026198
H -1.3453354 -1.2642909 0.76866823
H 0.8470097 1.8301646 0.7499158
H 0.1512664 -1.2317781 1.7438836
H -0.62634504 1.894218 -0.26075017
