9

N -0.65669591 -0.46145895 -1.62820976
C -0.04540956 -0.00340403 -0.61479857
C -0.30013057 -0.30558816 0.78447872
N 0.42482212 0.25536870 1.71508550
N 1.04196985 0.73164869 2.52684401
O 0.97026982 0.87341477 -0.78439499
H -1.40341885 -1.10185847 -1.37296312
H -1.07349305 -0.97874480 1.11778456
H 1.04208633 0.99062221 -1.74382550
