9

N -0.98888683 -1.1551352 2.386151
C 0.39109227 0.31560877 -0.35705596
C -0.7579513 -0.4692479 0.064694986
N 0.6478464 0.745017 -1.5233207
N -0.8754167 -0.8341283 1.3134232
O 1.2424827 0.584623 0.6587907
H 1.9559788 1.1029319 0.25669456
H -1.5470122 -0.7769291 -0.6024162
H -0.06813318 0.4872599 -2.1969616
