11

N 0.60643446 -0.97942954 -0.58618873
C 0.9305871 0.06584091 0.07453953
N 2.1889498 0.5242395 0.32489315
N -0.79105043 -0.957177 -0.5236198
C -1.2521129 0.2070658 0.06731917
N -2.394321 0.71759236 0.25030616
O -0.10306263 0.8181945 0.5294613
H -1.2714696 -1.3777587 -1.3011382
H 2.311462 0.99441195 1.2089423
H 2.9015722 -0.15631813 0.10878006
H -3.126989 0.14333837 -0.15329507
