9

N -2.689844 0.5337908 0.6782293
C -0.4701927 0.7039633 -0.2934818
C 0.53436637 -0.30737224 9.0008125e-06
N 1.7269816 -0.36262098 -0.42704204
N -1.6604731 0.6101123 0.23122564
O 0.07244198 -1.2676425 0.8344867
H 1.956053 0.41065067 -1.0447613
H -0.2890397 1.5528321 -0.9314703
H 0.81970644 -1.8737137 0.95280486
