9

N -0.74661785 -0.56279427 -1.4283017
C -0.1283979 -0.37698147 -0.28854778
C 0.15112764 0.8477946 0.4085584
N 0.80705374 0.74038994 1.5390445
N 1.3673844 0.6560112 2.5082018
O 0.22566995 -1.5359948 0.14894404
H -0.12978922 1.8401437 0.087969124
H -1.1638519 0.15784673 -2.0024793
H -0.382579 -1.7664158 -0.9733889
