11

N -2.39130658 -1.38224334 1.39924137
C 1.58665041 0.85579390 -0.01555757
C -0.77759782 -0.16369432 -0.11895487
C 0.48280818 0.13620417 -0.73892172
C -1.63344667 -0.81796672 0.59821953
O -0.72965422 0.90113464 -0.99306115
H 1.18078423 1.46523225 0.79689748
H 0.77813194 -0.47677239 -1.59223190
H 2.13146438 1.50166058 -0.71129572
H -2.91892036 -2.14838790 0.97401508
H 2.29108652 0.12903903 0.40164895
