11

N -0.16458952 2.5229766 -0.5250311
C -0.19262548 -1.5592068 -0.09707279
C 0.5047379 -0.2652708 0.22416022
C -0.16725485 1.006021 0.05817303
C -1.2181531 1.7571535 -0.61727303
O -0.054934915 0.5220857 1.3290708
H 0.15160626 -1.9400026 -1.0634341
H 0.03467876 -2.3069565 0.66951364
H -1.2732233 -1.4069989 -0.13787347
H 1.5947884 -0.2861269 0.25020882
H 0.78496975 1.9563258 -0.09044221
