12

N 0.8579039 -1.7387463 0.566589
C 0.26764375 -0.54515904 0.17023668
C 0.9308606 0.3951638 -0.62716603
N 0.34953445 1.5086215 -1.061887
C -0.9201712 1.6974313 -0.6989843
N -1.6517774 0.88174367 0.05831148
C -1.055105 -0.22601028 0.4859771
H 1.8656528 -1.7400466 0.60420036
H 0.44352347 -2.1811376 1.3749859
H 1.9666089 0.23738714 -0.9236285
H -1.402706 2.6044183 -1.0539874
H -1.6519679 -0.8936658 1.105353
