11

O -2.2967746 -0.6231627 -0.42047217
C -1.152388 -0.37375987 -0.16162989
C 0.11470641 -1.2125098 0.041173983
N 0.7565484 -0.050996486 0.7287678
C 0.85724175 0.9806359 -0.2847967
C -0.44247997 0.8125078 0.41315562
H -0.05824985 -2.0401871 0.735219
H 0.6563321 -1.5761606 -0.83700424
H 0.9576047 0.6981806 -1.3306593
H 1.4560752 1.8359524 0.01887314
H -0.84861636 1.5494998 1.0973729
