11

O 1.3627813 -1.4767691 -0.24317658
C -0.94102246 -0.46150145 -0.27744186
C -1.2608117 0.995104 -0.68885505
N -0.9550802 0.6956884 0.67016965
C 0.55044866 0.6701938 0.79669654
C 0.45313805 -0.5331457 -0.066560335
H 1.0039531 1.5954152 0.42105478
H 1.0045432 -2.1723676 -0.81381786
H -0.45804593 1.5119678 -1.2416389
H -1.6636617 -1.2584784 -0.3635616
H 0.9037577 0.43389302 1.8071312
