11

N -1.275405 0.85265523 1.380549
C -0.6506096 0.47108543 0.36789322
C 0.71171445 -0.18327484 0.14451858
C 0.7387412 -1.5076941 0.7540953
C 0.28319773 -0.09968583 -1.3366431
O -0.9818669 0.4988556 -0.9556475
H -2.1691065 1.2813083 1.1426958
H 1.5382518 0.4834695 0.43898642
H 0.82763505 -1.3170209 1.843328
H 0.86091673 0.585244 -1.9604934
H 0.11653126 -1.0649421 -1.8192822
