11

N 1.5066338 -0.8554201 0.97953033
C 0.5294427 -0.531016 0.26444525
C -0.14150347 0.91954684 -0.15484017
C -1.3498956 -0.013709753 -0.33314216
C 0.915229 0.6142965 -1.0188587
O -0.6206234 -1.214821 0.006737822
H -0.17234589 1.7401698 0.5541447
H -2.1471474 0.16145882 0.39583293
H 1.3544397 -1.8003807 1.3507168
H 1.8544302 1.0665535 -0.69006777
H -1.7286599 -0.08667769 -1.3544991
