11

N 1.917021 0.6221711 -1.2058631
C 0.88680744 0.26473477 -0.5628149
C 0.05551284 1.1204875 0.3045561
C -0.93484956 0.38308883 0.79862684
C -0.8081874 -1.018916 0.27685308
O 0.35314462 -0.9926793 -0.55856574
H 2.30805 -0.15586777 -1.7329766
H 0.27381226 2.1675842 0.4637806
H -1.726584 0.6958445 1.4695008
H -1.6698694 -1.3285269 -0.32497308
H -0.65485793 -1.7579209 1.0718762
