11

O 1.85375442 -0.48680299 -2.04309823
C 0.67181065 -0.65964182 -1.88624597
N -0.01208558 -0.33659142 -0.72738465
C 0.56609806 0.21741439 0.36574863
C -0.22342853 0.54922721 1.44612455
C -1.60822784 0.28942055 1.29362795
H 0.00585098 -1.08833204 -2.65444550
H 0.27555223 0.99169507 2.31027266
H -1.02221787 -0.47155551 -0.59904017
H 1.64057779 0.36395665 0.30029362
H -2.14768424 0.63120988 2.19414691
