10

O 0.5399594 -0.71008986 -1.1757835
C -0.22071242 0.09925418 0.88271075
C 0.3933307 0.67905974 -0.95500726
O 0.801448 1.0012665 0.3420198
C -0.6616478 -0.2193673 -0.55202967
O 0.28940666 -0.91344243 1.6457137
H -0.93366057 0.6632663 1.4862291
H 0.8424131 -1.4513013 1.0598533
H -1.6190678 -0.51660573 -0.9614067
H 0.5685308 1.3679597 -1.7722993
