10

O 1.062167 1.4348831 -0.19249217
C -0.537585 -0.14505693 0.83473694
C 0.76753163 0.11813049 0.06750287
O -0.5321477 -1.5967562 0.027300363
C -0.17378107 -0.67633456 -0.8231953
O -1.3915904 0.4859802 0.042987194
H -0.72412634 -0.29412204 1.9033815
H 0.19593906 1.8635528 -0.30470407
H -0.3341651 -0.75674 -1.8992912
H 1.6677581 -0.43353686 0.3437738
