10

O 0.8929203 -0.37635097 -1.3233736
C -0.72380507 -0.33234084 0.035372056
C 0.7979124 -0.62957156 0.091522604
O -1.3910602 0.04394764 1.1762345
C 0.14059617 0.69866914 -0.7331409
O 1.036189 0.76970166 0.41581032
H -1.3395848 -1.006547 -0.5593677
H -0.7840854 0.62607604 1.6624196
H -0.056197222 1.5992856 -1.3112715
H 1.4271151 -1.3928696 0.54579467
