10

N -0.3600005 -0.101851426 -1.0691234
C 1.1597062 0.13872933 0.61260307
C -0.22436449 -0.09744746 0.23064895
O 2.0229988 0.38167113 -0.21798359
C 0.36002508 -0.1593037 -2.0700858
N -1.2263575 -0.39615318 1.1648943
H 0.47387773 0.71439254 -2.7175395
H 1.3823553 0.053091917 1.6888108
H -1.9692272 -0.9563047 0.7661005
H -1.6190138 0.42317563 1.6116744
