10

N -0.6556496 -1.220749 1.1903212
C -0.17906241 -0.3063559 0.2560978
C -0.78177947 0.73139036 -0.3762884
O 0.13987458 1.2679039 -1.2490257
C 1.2305359 0.51715523 -1.082524
N 1.1187695 -0.42719293 -0.2102698
H -1.3154556 -0.836723 1.8506277
H 0.104504146 -1.687804 1.6644852
H -1.7549218 1.1945279 -0.35811868
H 2.0931847 0.7678473 -1.6853051
