11

N 2.2594202 -0.64481616 0.725971
C 1.1076216 -0.31778365 0.34254396
O 0.5114533 -0.9004045 -0.72535425
C -0.8542205 -0.49880877 -0.7558775
C -0.8353279 0.8042311 0.03670672
O 0.2879943 0.6207974 0.89630884
H 2.5474045 -0.060811095 1.5039507
H -1.4708542 -1.2653921 -0.27535626
H -1.1625115 -0.3749172 -1.795992
H -0.6657867 1.676713 -0.6028068
H -1.7251931 0.9611919 0.64990556
