11

N 1.12922063 -0.90892036 0.56534182
C 0.33194372 0.02328752 0.33660733
O -0.33300099 -2.01313653 -1.51069102
C -0.93699015 -0.97539279 -1.45724389
C 0.33135072 1.32065787 1.07557706
O -0.70883140 0.05008091 -0.62966622
H 1.13265043 1.29460367 1.81272329
H 0.97935909 -1.70409359 -0.05605363
H -1.79023758 -0.71461096 -2.09912274
H 0.49210191 2.15316749 0.38455602
H -0.62756638 1.47435669 1.57797197
