10

O 0.79290545 1.9333868 -0.7601747
C 0.35490707 0.8907963 -0.3752972
C -0.9283801 0.43983293 0.32887146
N -0.5062808 -0.95526093 0.0941902
C 0.8332711 -0.5641804 -0.3883881
H -0.9543949 0.7651218 1.3787819
H -1.8708215 0.7238265 -0.15216374
H -0.49581626 -1.5308653 0.9297892
H 1.6664764 -0.72734565 0.31056702
H 1.1081334 -0.9753119 -1.3661761
