11

N -1.21476186 -1.07032362 0.62052168
C 0.04221227 -0.44698932 0.23417336
C 0.13872956 0.00565363 -1.20347617
N 0.57680297 1.20158900 -1.30053822
N 0.71033301 1.61955816 0.06280274
C 0.38431043 0.80173029 1.02753858
H -1.35504183 -0.92037409 1.61237420
H 0.92221505 -1.10143120 0.39363047
H -1.18632477 -2.07111270 0.46593267
H -0.06246802 -0.58302787 -2.09158237
H 1.04399315 2.56472738 0.17862245
