10

O 0.11717882 -1.60593346 -0.04669678
C 0.36949274 -0.25044245 -0.22454430
C 0.78521574 0.42329782 1.07996209
O 1.14817143 1.57097741 1.12760387
C -0.85965203 0.47562176 -0.74998296
O -1.87169901 -0.13736179 -0.98971567
H 0.70050274 -0.22579039 1.97430692
H 1.17670787 -0.07369747 -0.95481367
H -0.79944860 -1.74581264 -0.33904426
H -0.76646987 1.56914120 -0.87707519
