12

O -2.02496472 1.37197652 -0.18773560
N -0.69758978 1.28516407 -0.67970673
C 1.37933016 -0.28278438 -0.10641987
C -0.38817476 -0.82718276 0.69879344
N 0.94904861 -1.34124436 0.86219634
C -0.05010524 0.20343346 -0.08874024
H 2.13013346 0.39275657 0.31578594
H -0.25934075 2.17230685 -0.46412599
H 1.07849654 -2.27751267 0.48371775
H -1.28443430 -1.17635178 1.19399630
H -2.56154822 1.15847898 -0.96244349
H 1.72914868 -0.67904048 -1.06531796
