12

O 0.8724711 1.9633911 -1.2816274
N 1.0103023 1.4143226 -0.006743791
C 0.31113958 0.36719418 0.10476186
C 0.13504285 -0.6073165 1.2434435
N -0.56030893 -1.516615 0.29529607
C -0.58626133 -0.47992778 -0.770278
H 1.4628422 2.724871 -1.2430378
H -0.49029586 -0.2182089 2.057152
H 1.051629 -1.0268639 1.668163
H -1.4824454 -1.7922338 0.6108469
H -1.5659944 -0.021494428 -0.95562315
H -0.15812142 -0.80711854 -1.7223533
