11

N 0.8399466 0.59345984 0.40232724
C -0.3719494 -0.05735126 -0.09304118
C 1.5911297 -0.32322744 -0.33082128
O 0.51186717 -1.0911312 -0.6925853
C -1.3055019 0.4288175 -1.1346532
O 2.7430406 -0.46429196 -0.58244365
N -1.2574074 -0.40557083 0.9450798
H -0.7938823 -0.64519894 1.8156039
H -1.0264851 1.4653012 -1.4007077
H 1.0149148 1.5865281 0.41412282
H -1.9456728 -1.0873348 0.6571185
