11

N 0.59363765 1.3560245 -0.053591922
C 1.6301785 0.23503599 0.3518462
C -1.1561989 -1.2134522 -0.7206929
O -1.96569 -1.9741647 -1.1335388
C 0.31352028 -0.08494279 -0.08156893
O -0.06771734 -0.6450369 -1.3437636
N -0.9259259 -0.5651044 0.50229186
H 0.7936811 1.8387755 -0.92111886
H 1.7284403 0.25665018 1.4420538
H -0.9535559 -1.0876093 1.3649799
H 0.009630151 1.8838242 0.59310323
