10

O -0.43901232 1.4501697 1.1658771
C 0.5353721 0.7508805 0.9716718
C 0.28198898 -0.20758867 -1.4196303
C 0.5026628 -0.42849818 0.06807288
N -0.8501031 -0.61808896 -0.4475837
H -1.1971458 -1.5626724 -0.5344885
H 0.10408836 0.87370926 -1.5588233
H 1.5216546 1.0005206 1.4037102
H -1.5030671 0.055861156 -0.043422382
H 1.0435613 -1.314293 0.3946162
