12

N -0.9625454 0.68865705 1.2460012
C 0.22511046 0.5110361 0.456049
C -0.104311906 0.47842175 -1.0567896
O -0.38109162 -0.89220446 -1.2299842
C 0.74678534 -0.90748614 0.337145
N 1.4379092 -1.8580927 0.12322182
H 1.0162901 1.1898211 0.7930598
H -0.7977101 0.50675166 2.2287054
H -1.6884418 0.06611402 0.9078254
H 0.74401623 0.836405 -1.6594412
H 0.7456061 -1.7254897 -0.88676435
H -0.9816167 1.1060663 -1.2590286
