12

N -1.53741666 0.00369074 -0.78621778
C 0.41081832 -1.29865733 0.19718716
C 0.69365394 0.70817786 0.30317602
O 1.53097833 -0.37778877 0.33668133
C -0.57905597 -0.12510063 0.28224257
N 0.94712639 1.93565158 0.25011192
H 0.43630602 -1.79788153 -0.77461085
H -1.05671550 0.11997295 -1.67392892
H -1.10188662 -0.08481599 1.24167335
H 0.39648773 -2.02664008 1.01049220
H 1.95437970 2.10535092 0.26200457
H -2.09467570 0.83804018 -0.64881142
