9

N -2.1963856 0.3101866 -1.4332855
C -1.2761266 0.45138085 -0.74940085
C -0.1014859 0.6229626 0.08690436
C 0.46941245 -0.57809716 0.7551093
N 1.1757313 0.055941895 -0.34243134
H -0.03275155 1.5931864 0.5701817
H 0.9254285 -0.45866314 1.7338074
H -0.0297472 -1.5282359 0.5851037
H 1.0659245 -0.46866184 -1.205989
