9

N -0.98701131 -0.14673361 0.23623234
C 0.30164405 -0.36370216 -0.44249881
C 1.04913190 0.87438128 -0.63283329
C 0.12091213 -1.02870897 0.88958565
N 1.68323955 1.83423079 -0.73725432
H -1.18296450 0.81638675 0.49772300
H 0.55957203 -0.36904071 1.65110847
H -1.79350075 -0.64892700 -0.11562216
H 0.24897680 -0.96788607 -1.34644111
