11

C -0.40987164 0.91677964 -1.1515893
C -0.07226052 -0.3340666 -0.37894407
O -0.057990093 -1.4381672 -0.8794403
C 0.27899504 -0.18510126 1.0913436
O 0.6509385 -1.4026948 1.6527429
H 0.5171983 1.3370492 -1.5603269
H -0.86590344 1.6816784 -0.5138912
H -1.0708356 0.6794493 -1.9874896
H -0.600007 0.24171098 1.6028239
H 1.0860431 0.55964357 1.1829078
H 0.5436934 -2.0562813 0.9418635
