9

O 0.6923678 1.799603 0.42157623
C 0.68442583 0.61880004 0.65240365
C 0.10435201 -0.35635194 -0.3749531
O -0.31413168 0.31129557 -1.5132841
C -0.9985287 -1.0865391 0.2972891
N -1.8470516 -1.6367997 0.85300595
H -0.27991784 1.2591579 -1.2963955
H 0.8814043 -1.0918379 -0.62682885
H 1.0770798 0.18267193 1.5871868
