9

O 0.58782023 1.0422091 -0.98433846
C -0.74272364 0.21486954 0.6732504
C 0.38407773 0.0069148783 -0.24229579
O -1.1918154 1.3970222 0.6326983
C 1.1719388 -1.1824063 -0.3742874
N 1.807683 -2.1456404 -0.42208886
H -0.08368153 1.6901768 -0.51975435
H -1.0746236 -0.5516178 -0.2865625
H -0.8586754 -0.47152805 1.5233788
