9

O -1.2702899 0.56088334 0.69383633
C 0.51452583 -0.8159235 0.3410194
C -0.33250803 0.2793972 -0.14380811
O 0.07835041 -1.3250921 1.4146101
C -0.1636922 1.0066284 -1.3680393
N -0.015181434 1.5416006 -2.381314
H -1.1087897 -0.22269653 1.3633016
H 1.1834228 -1.325239 -0.36685136
H 1.1141623 0.30044132 0.447245
