9

O -1.1211789 0.36162743 -1.0477538
C 0.0752789 -0.09152984 -0.51325136
C 0.48625246 0.74442756 0.7015003
O -0.2286841 1.6271502 1.0966766
C -0.0034122358 -1.505903 -0.066735595
N -0.054081917 -2.5942256 0.3150894
H -1.4813492 0.99724823 -0.40525103
H 0.8794788 -0.027290465 -1.2608743
H 1.4476961 0.488496 1.1805998
