11

O 0.12736027 0.75879043 1.503686
C 0.90227634 -0.23837124 0.87072784
C 0.4865984 0.23556884 -0.4567975
C -0.7648185 -0.26277 -1.0507412
O -1.5900519 0.34124103 -0.10062577
H 0.90688306 1.1825323 -0.79266113
H -0.81203914 -1.3638424 -1.0535464
H -0.8703737 0.6070885 0.9625596
H 0.5873946 -1.2685617 1.0881494
H 1.9643384 -0.10202301 1.0981514
H -0.9375678 0.110347226 -2.0689023
