11

O -1.36425762 0.38855302 0.27485677
C -0.26900095 1.08476549 0.87888098
C -0.15390126 0.52068387 -0.46169602
C 0.55921338 -0.79328647 -0.69742185
O 0.41032908 -1.65141180 0.40629074
H -0.22336301 1.18790662 -1.32139988
H -0.42703317 2.15481701 1.00364920
H 0.19319798 0.56207613 1.71312427
H -0.52144548 -1.58956633 0.66275980
H 0.16630499 -1.24804564 -1.62095453
H 1.62995633 -0.61649181 -0.83808935
