11

N -0.87635225 0.9891566 -1.3427049
C -0.27989814 0.23813428 -0.3119756
C 1.0163276 0.30325508 0.15563618
N 1.0776447 -0.5585689 1.2097324
N -0.07624221 -1.1775959 1.4533863
C -0.9098055 -0.701363 0.5387272
H -1.5596943 0.45480978 -1.8625518
H -0.19429882 1.365085 -1.9872273
H 1.8701223 0.8805664 -0.16511878
H 1.8703166 -0.75541836 1.7951498
H -1.9381204 -1.038061 0.51694685
