11

N 1.3174486 0.091910325 0.85149205
C -0.43647748 -1.0690929 0.6351799
C -0.6175614 0.049457956 -0.30296776
N -1.7939541 0.29540822 -1.0092036
N 0.71148413 -1.0367056 1.2635258
C 0.6033276 0.7905323 -0.06259464
H -0.19977635 -0.38639954 -1.2729043
H 0.9743855 1.689166 -0.5335066
H -1.6885338 1.1889107 -1.4980998
H 2.260952 0.27193418 1.1519893
H -1.131295 -1.8851215 0.7770894
