11

N -0.75760032 -0.16759402 -1.25080077
C 0.03739192 0.79333939 -0.77053257
C 0.47011743 0.33394256 0.53364559
N -0.99697826 -1.23141234 -0.56232196
N 1.22962792 0.83496445 1.43133337
C -0.22092254 -1.01413958 0.66108197
H 0.25073107 1.68900198 -1.32786625
H -1.20472310 -0.11273441 -2.16086501
H 1.57761645 1.74732600 1.13783207
H 0.50629074 -1.82529007 0.78064697
H -0.89155173 -1.04740398 1.52784695
