11

N 2.8917723 0.09694927 1.0367954
C -0.43866825 0.31453502 0.05783204
C 1.846382 -0.32255366 0.7797299
C -1.4577755 0.43707606 -1.4849344
C 0.5070488 -0.8153267 0.44873792
O -1.7003738 -0.20749754 -0.25397617
H -0.021605715 0.69999635 -0.96261936
H -1.7805629 1.4996178 -1.3087845
H -0.49223676 1.1608534 0.7483581
H 0.56404644 -1.5293938 -0.3773523
H 0.081973664 -1.3342559 1.3162135
