11

N 0.33016172 2.925735 0.45115593
C -0.20585354 1.9083397 0.3523162
C -0.856056 0.600568 0.20426159
C 0.008013907 -0.3572294 -0.59618074
C 0.91572404 -1.2905062 0.066292316
O -0.33294892 -1.7210487 -0.46536952
H -1.82422 0.73869395 -0.2896037
H -1.0511447 0.17561094 1.1951351
H 0.23707227 -0.036047895 -1.6121496
H 1.7982585 -1.6525528 -0.4591303
H 0.9809926 -1.2915628 1.1532729
