14

C -2.391564 -0.075685546 0.97347695
N -1.3509059 0.13691163 -0.013261841
C -0.033928216 0.038150813 0.34294352
O 0.35391873 -0.074732035 1.4896101
N 0.84238523 0.106581144 -0.73678386
C 2.2142317 0.004549916 -0.5923048
N 2.9625223 0.105353385 -1.6144904
H -2.0364528 0.29513687 1.9352875
H -2.648058 -1.1362247 1.0840286
H -3.2865002 0.47958815 0.68131363
H -1.5980654 -0.02375585 -0.9771014
H 0.5172296 0.30288383 -1.6736438
H 2.5201745 -0.16542204 0.44065404
H 3.9350123 0.0066645634 -1.3397286
