9

O -1.0630332 1.1265612 -0.3517353
C 0.0906515 -1.6310916 1.5751058
C -0.34447145 -0.08767985 -0.54038596
C -0.109069295 -0.91705066 0.62667274
C 0.30719855 1.2205518 -0.69409716
H 0.26369134 -2.255621 2.4233596
H 0.96095955 1.576432 0.09987772
H -0.62474275 -0.628581 -1.4446597
H 0.5188158 1.5964788 -1.6941379
