11

O 1.4615657 -1.7032998 0.27979383
C -1.3315297 0.4935182 -0.12747832
N -0.25938827 1.3250656 -0.3639474
C 0.9610941 0.63315064 -0.25495732
O -2.5191896 0.74460906 -0.19139366
C 0.65446544 -0.6270551 0.090815246
N -0.7331958 -0.71942115 0.20706914
H -1.2596315 -1.575741 0.26956272
H -0.3842243 2.2553716 -0.7209886
H 1.9208753 1.0987656 -0.4091153
H 1.4891587 -1.9249635 1.2206395
