11

O -1.573285 0.059794497 1.8013295
C -0.7020469 0.016544169 0.7832139
N 0.39806002 0.7122835 0.6645895
C 0.9216381 0.30023307 -0.5398606
O 2.081318 0.8157011 -0.99514735
C 0.14073873 -0.63849884 -1.1446328
N -0.92619216 -0.8099076 -0.25189456
H -1.2248178 0.7030479 2.4319968
H 2.375513 1.4503676 -0.32934228
H 0.222735 -1.181852 -2.071389
H -1.7136606 -1.4277135 -0.34886295
