11

N 0.81155710 -0.34230595 1.98746892
C -0.95925276 0.60007658 0.45245185
C 0.26056606 -0.15611104 0.85436137
N 0.71758497 -0.64223972 -0.34461918
C -0.05241657 -0.08461154 -1.43647573
N -1.14219422 0.64938530 -0.80553953
H 1.65987554 -0.97968103 -0.44459971
H 0.27716443 0.11885129 2.72091089
H -1.62964805 1.08388368 1.15911266
H -0.46978961 -0.86020545 -2.08840174
H 0.52655336 0.61295794 -2.05466911
