11

N -0.53988117 -0.629157 2.009607
C -0.2762346 -0.1969779 0.840888
C 0.32392976 -0.1678531 -1.3929337
N 0.32416165 1.205282 -0.9041115
C -0.009517861 1.1749264 0.32315284
N -0.15796632 -0.96882206 -0.28738987
H -0.32767838 -0.23800461 -2.271136
H -0.031463124 -1.9648211 -0.22609456
H -0.5759595 0.14249527 2.672502
H -0.07433364 2.0733018 0.932734
H 1.344943 -0.43036968 -1.6972188
