11

N 0.5642331 -1.4102802 -1.3637398
C 0.1755999 -0.44036937 -0.45037314
C -1.0224504 0.10302942 -0.1069377
C -0.7123517 1.1307122 0.8549322
C 0.6274558 1.1182697 1.0132538
O 1.1888406 0.1538505 0.21454741
H 1.4311733 -1.8610799 -1.1063228
H -0.16092531 -2.093039 -1.5370033
H -1.9963425 -0.1705431 -0.48271608
H -1.4149665 1.783631 1.3518091
H 1.3197336 1.6858189 1.6125501
