11

N 1.4881474 0.044674464 1.0755013
C -0.31381828 -0.9056923 -0.21792962
C -1.2953455 -0.5026167 -1.0486873
C 0.4050038 0.28694502 0.24195221
N -1.9178982 0.4007255 -1.6332346
N 0.024061436 1.4373462 -0.18301648
H 0.5814726 2.204943 0.1816814
H -0.08051438 -1.9291781 0.028381024
H -2.1298847 -1.0538085 -1.6750593
H 1.7868352 0.8332202 1.6315541
H 1.4519408 -0.8165587 1.5988573
