10

N 0.6335849 0.095034994 -0.7332216
C -0.19057025 -0.07180213 1.3527801
C 0.9515707 0.07874247 0.5507613
C -1.3535866 -0.1643281 0.5806557
C -0.83296394 -0.056606706 -0.82148945
H -1.2668113 0.80793786 -1.3376576
H -0.14147408 -0.10664468 2.4376385
H 1.989957 0.17595015 0.8547953
H -1.0823647 -0.95447445 -1.3964729
H 1.292658 0.19619057 -1.4877894
