9

O 0.08093532 -0.64407275 2.03753525
C 1.64879523 1.32474786 -3.23345652
C -0.12851439 -0.06283307 -0.28748370
C 0.44455631 0.38361599 -1.24134285
C -0.78366113 -0.56841107 0.92871309
N 1.07926331 0.87823501 -2.29933133
H -1.13853757 -1.58857753 0.75603898
H -1.66790639 0.05136079 1.14145474
H 0.46506939 0.22593482 2.19787246
