9

O 1.1491438 1.2091166 -1.3380716
C -1.0994722 -0.49060214 0.6604499
C 1.1958653 0.006009488 -0.6079424
C -0.06285376 -0.3023115 0.088136256
C -3.270667 -0.8759845 1.8612126
N -2.2484903 -0.7001829 1.2950158
H 1.4117767 -0.77896285 -1.338486
H 2.0179522 0.003643298 0.12379073
H 0.9067451 1.9292744 -0.74410546
