9

O -0.24191229 -1.2123014 1.7564754
C -0.1902815 0.12853235 1.3353317
C 0.116040245 0.26318988 -0.10070367
C 0.3396338 0.33047006 -1.282099
C 0.5988126 0.41166252 -2.637123
N 0.8132914 0.4777393 -3.778136
H -0.91461194 -1.6728121 1.2409275
H 0.60204816 0.60290694 1.9192137
H -1.1230204 0.6706125 1.5461135
