10

O 0.40943637 -0.56438196 -1.3398882
C 0.43064588 0.56031334 -0.4014379
C 0.731334 -0.44864535 0.69323516
C -1.0470366 0.30286005 -0.16475247
N -0.37641764 -1.0572988 -0.14873181
H -1.7057791 0.41762316 -1.0258447
H 1.6633115 -1.0088207 0.6032214
H -1.5109603 0.58109295 0.7851246
H 0.96324676 1.4590063 -0.7272555
H 0.44221914 -0.24174897 1.7263296
