12

N 0.32691225 0.5182398 -0.6866448
C -0.474655 -0.6727317 -0.5772189
N -1.6973997 -0.83555144 -1.1336963
C 1.0921493 0.64976037 1.2680448
C 1.2598764 -0.33872968 0.1415046
C 0.22240822 1.3354568 0.51831037
N 0.30100447 -1.4703215 0.0736221
H 1.5615321 0.7758982 2.233594
H -2.2314544 -0.007968523 -1.3389528
H 2.2522092 -0.52516854 -0.27515978
H -2.212384 -1.6466018 -0.8289946
H -0.40019843 2.217718 0.6055914
