11

O 1.49717161 -1.15051183 -1.50025746
C 0.71474184 -0.57760532 -0.77731507
N -0.61385515 -0.34235260 -1.05656101
C 0.95202716 0.03159053 0.60721534
C -0.39232818 0.58910215 0.98867098
C -1.24700657 0.34377476 -0.00489493
H 1.73805988 0.79259824 0.54288293
H -0.61574754 1.10371381 1.91276014
H 1.31732185 -0.74228007 1.29020802
H -2.29670142 0.59422675 -0.09115564
H -1.05368329 -0.64225634 -1.91155346
