12

N 0.91407627 -0.6401959 -0.52232206
C -0.40965888 -0.7379124 -0.49651316
N -1.1012249 0.22315496 0.12054503
C 0.48459664 0.9842517 1.4793178
C -0.2099893 1.3406242 0.36716062
C 1.213523 0.41909897 0.31556347
N -1.0351664 -1.8458955 -0.9983458
H -0.39068368 2.3004088 -0.13442375
H 0.7868149 1.3391606 2.4519823
H -0.49050516 -2.384935 -1.6528034
H -2.017244 -1.7404302 -1.2036135
H 2.2554617 0.7426694 0.27345237
