12

N 0.81834199 1.47127022 -1.56167650
C 0.38942930 0.61975569 -0.57863398
N 0.91222316 -0.60053189 -0.50466059
C 0.24679518 -1.20390496 0.60734178
C -1.18475510 -1.33289314 0.57196656
C -0.74641469 -0.09722262 1.15360930
N -0.60391572 0.99398431 0.23419619
H 1.70348159 1.25434719 -1.98856457
H 0.83868055 -1.88819185 1.21622379
H -0.95801868 0.14346797 2.19584298
H -2.01437779 -1.80769506 0.08197380
H 0.59853060 2.44761382 -1.42761867
