9

O 2.071918 0.5109583 -0.5617316
C -0.893551 1.2168605 1.0575637
N 1.5060723 -0.4981078 -0.9028443
O -0.4311132 -1.8117269 -0.8451203
C -0.4396474 0.2458568 0.31874445
C 0.14430141 -0.65716255 -0.43411
H 0.22609924 -2.2736423 -1.3865402
H -1.408861 2.0677564 0.6146248
H -0.7752183 1.1992072 2.1394138
