9

O 0.4476188 -0.0058199638 1.221541
C -0.117793426 -1.0778706 -0.774764
C 0.25865045 0.9733641 0.38217598
C -0.16206403 0.44618976 -0.85723585
C 0.18860357 -1.2076796 0.55395585
H -0.21413384 1.0193424 -1.7767364
H 0.3549864 -2.0690193 1.1871067
H 0.44702816 1.9762694 0.74295115
H -1.2028962 -0.054776102 -0.6789947
