9

O 0.19172126 -1.3622184 -0.014169367
C 0.94706905 -0.43411502 -0.6529346
C -0.67555964 0.64169556 0.43326104
C 0.47004232 0.8118183 -0.4195101
C -0.7880453 -0.6921646 0.6408167
H 0.8695143 1.7422317 -0.7971813
H 1.7782269 -0.8213293 -1.2239959
H -1.477911 -1.303364 1.2036914
H -1.315058 1.4174461 0.83002234
