12

N 0.8567102 -1.7399837 0.5653441
C 0.2661154 -0.54645973 0.16937812
C 0.92942286 0.3930957 -0.6260876
N 0.34824425 1.5074873 -1.0613163
C -0.9182563 1.6977226 -0.69832283
N -1.6498417 0.8843131 0.05798042
C -1.0534871 -0.22547214 0.48525882
H 1.8640429 -1.7352989 0.6066455
H 0.4409849 -2.1815293 1.3729564
H 1.9664778 0.2361997 -0.92359376
H -1.3995869 2.604096 -1.0531971
H -1.6508262 -0.89417017 1.1049542
