11

O 0.19860610 -0.44947751 -1.37660596
C -0.37581013 -1.06836658 -0.25306328
C 0.64848565 0.85637318 -0.99047883
N 0.32820778 1.07174284 0.40393779
C -0.23233149 0.00738073 0.79645206
O -0.68567153 -0.22240080 2.02860031
H -0.50595084 0.57280066 2.55249737
H 0.16418656 -1.98286819 0.02700537
H 0.15614763 1.61308218 -1.61210330
H -1.42804355 -1.32821182 -0.42866385
H 1.73217363 0.92994544 -1.14757788
