11

O -1.5053363 -1.04192 0.3813461
C -0.16713032 -0.77162594 0.06816089
C 0.032045808 0.23413341 -1.0929902
N 0.7638371 1.076172 -0.14733158
C 0.50308037 0.30222008 0.9470816
O 0.6801141 0.4391027 2.1315336
H -1.5650262 -1.1252888 1.3427143
H 0.43468115 -1.6830174 -0.040941697
H 0.6320625 -0.114348285 -1.9361136
H -0.9142016 0.65961707 -1.4345983
H 1.1058732 2.0249553 -0.2188613
