11

O -1.8017102 -0.10737698 1.2363949
C 0.52164024 -0.6640767 -0.24453564
C 0.10995912 -0.17772895 -1.6232239
N 0.36686507 0.3787426 0.75269085
C -0.82087034 0.5844139 1.393534
O 0.7540835 -0.3665488 -2.6199262
H -0.852854 0.37085694 -1.629532
H 1.1080735 1.0478455 0.89232033
H 1.5504644 -1.0281088 -0.2786108
H -0.79066044 1.4487116 2.0821633
H -0.14499076 -1.4867302 0.038725518
