11

O -1.1143845 0.18531783 1.8326569
C 0.6552999 0.68244284 -1.1134679
C -0.02539112 -1.1565627 0.09164829
N -0.059164487 1.189358 0.03802564
C -0.42610708 0.16973375 0.6913693
O 0.6530965 -0.75104195 -1.0704762
H 0.17288657 1.0228658 -2.036946
H -0.8996988 -1.7765982 -0.14645323
H 1.6908791 1.0457972 -1.1087809
H 0.62881005 -1.7255116 0.76593757
H -1.2762263 1.1141992 2.0564864
