11

O -1.5011702 -1.0481204 0.38004935
C -0.16591373 -0.77164644 0.06582886
C 0.02817588 0.23429398 -1.093224
N 0.7616783 1.077845 -0.14764427
C 0.5063082 0.30227655 0.94735
O 0.67968833 0.43928096 2.1335766
H -1.5634369 -1.1185757 1.3421526
H 0.4350707 -1.6834466 -0.040249206
H 0.62958115 -0.114519835 -1.9350718
H -0.91872925 0.65989184 -1.4336958
H 1.1087476 2.0227206 -0.21907248
