11

N 0.103865296 0.71269596 -1.7200457
C -0.005221644 0.16784826 -0.4362705
C 0.88896143 -0.5037221 0.36908615
C 0.130303 -0.85887927 1.5077887
N -1.1183624 -0.44211066 1.4321212
N -1.1815089 0.18118683 0.23613799
H 1.0480967 0.6343235 -2.073487
H -0.19090363 1.6808649 -1.774607
H 1.9311633 -0.70166326 0.1665364
H 0.4602786 -1.3993094 2.3850014
H -2.0666718 0.5287652 -0.092261344
