11

N 0.38277304 -1.4875511 -0.81193155
C -0.9375363 1.6828398 0.6744979
C -0.8731392 0.35006985 0.11854923
C 0.45862284 -0.25814506 -0.1811259
N -1.1376319 0.8074593 1.5426248
N 1.5089049 0.40580875 0.10478288
H -1.7254473 -0.07704512 -0.41145006
H -0.43024525 -2.0526307 -0.61491203
H 1.2427347 -2.012927 -0.88665026
H 2.3600638 -0.11265286 -0.11525563
H -0.84909934 2.7547743 0.5808707
