11

N 0.108959615 -0.37858334 2.3353322
C -0.8173321 0.26923525 1.7988155
C -0.8292484 0.111461245 0.36768448
C 0.34884915 -0.23409943 -0.4013981
N 1.3236473 -0.9051042 0.09828368
N 0.25721288 0.19467309 -1.7342035
H -1.6827425 0.6799522 2.33612
H 2.1316023 -0.8963684 -0.53025144
H -0.13867474 1.1113329 -1.8743743
H -1.7978389 0.00086101686 -0.11845994
H 1.0955657 0.04663997 -2.277549
