13

C 0.19967344 -1.5195326 -0.6012938
C -0.20658201 -0.05479478 -0.58380294
O -1.5711516 0.13228862 -0.22867236
C 0.7375866 0.7689487 0.30329138
O 1.9439958 0.6206932 0.26093695
N 0.098131955 1.6518778 1.111717
H 1.2489225 -1.6134539 -0.8897666
H -0.42608443 -2.0745306 -1.3065475
H 0.084989704 -1.9667411 0.39530885
H -0.115223944 0.3620381 -1.5915611
H -1.7573014 -0.4363123 0.5294951
H -0.88811153 1.8086407 0.9763487
H 0.65115494 2.320878 1.624546
