13

C -0.10379251 0.6612247 0.5900358
C 1.0777588 1.3834261 0.0022588854
O -1.2098805 0.26880673 -0.87073815
C -0.40800458 -0.7348211 -0.691669
O 0.1284017 -0.13495792 1.683329
N -1.0118389 -1.9375597 -0.7936497
H 1.9227319 0.7042475 -0.14346871
H 0.8117468 -0.7699114 1.4307368
H -0.4744412 -2.788639 -0.7971724
H -1.9932488 -1.9770395 -1.0444578
H -0.9124124 1.3230522 0.90077466
H 0.8038159 1.8170894 -0.9590481
H 1.3691641 2.1850817 0.6930686
