10

O -1.6876067 -0.5930868 -1.5265198
C -0.80496126 -0.2660891 -0.77807635
C -0.37594974 -0.6198559 0.6602723
C 0.77093875 0.39894402 0.44353688
N 0.24205711 0.6089762 -0.9012861
H -1.1075186 -0.3508466 1.4245819
H -0.06448004 -1.657863 0.7888792
H 0.7262212 1.2866024 1.0816439
H 1.7795676 -0.022948239 0.46478704
H 0.5217315 1.216167 -1.6578194
