10

O 0.59764814 1.58899524 1.23993828
C -0.10334067 -0.96435549 -0.74788302
C -0.90528818 -0.20550010 0.29169334
C 0.19111372 0.54590527 0.49827453
N 1.08157703 -0.12419755 -0.35621959
H -1.86642851 -0.34039825 0.76752324
H 0.06721247 -2.02935851 -0.56484976
H -0.14740769 1.90144236 1.76693655
H 1.48429696 0.43405809 -1.10481987
H -0.39938344 -0.80659106 -1.79059412
