10

O 1.3288671 0.5385493 1.5374047
C -0.8219378 -0.23629531 0.46416023
C 0.46160698 0.1457758 0.5903245
C -0.5660751 -0.35709482 -1.0256861
N 0.87167466 -0.016125653 -0.7430004
H -0.6749269 -1.3506899 -1.470367
H -1.6283954 -0.51263964 1.128737
H 0.86572975 0.57669526 2.38269
H -1.0550971 0.39157745 -1.6582402
H 1.2185541 0.82024753 -1.2060227
