10

O -0.21599701 -1.00212838 0.93132024
C 0.28654861 -1.06903515 -0.40447169
O 0.65236055 0.72917712 -2.02163418
C -0.47940591 0.29571434 1.19484751
C -0.22447632 1.16508049 0.20486643
C 0.29312579 0.37561758 -0.92401362
H -0.36936119 -1.71026312 -0.99983435
H -0.87096527 0.47533994 2.19128610
H 1.29322077 -1.49611768 -0.38616839
H -0.36505009 2.23661462 0.21380195
