10

O 1.7819978 1.2311422 -0.594181
C 0.51905245 -0.863441 -0.6112264
O -0.7325854 -1.1754072 0.00314195
C -0.3457549 1.0067497 0.56274426
C -1.1508173 -0.06371623 0.6453661
C 0.8091199 0.60126895 -0.25419107
H 0.43072385 -1.0067791 -1.6917355
H -2.1018522 -0.17793354 1.1562095
H 1.2872647 -1.5348192 -0.21724088
H -0.497149 1.9829355 1.0011132
