10

O -1.5223817 -1.3178408 0.32173172
C 0.8616445 -0.7236932 0.42753726
C 1.5483826 0.5646019 0.04324838
C -0.7420758 0.8460068 -0.46118614
O 0.61483455 1.3616925 -0.4291109
C -0.6202244 -0.5450681 0.13454212
H -1.3877832 1.5043745 0.12583406
H -1.0903085 0.83002067 -1.497706
H 1.0447443 -0.96686137 1.4811214
H 1.2931677 -1.553233 -0.14601189
