12

C 0.7939919 0.2538553 0.014849765
N -0.6562078 0.9630103 -0.658743
C 0.49724406 0.011259233 1.4784975
N -0.0073743253 -1.0296979 -0.84606504
C -0.92784274 -0.17819342 -1.2406733
O 1.8428934 0.65046704 -0.41406834
H 1.202138 -0.7409329 1.8490524
H 0.682011 0.94819 2.0127964
H -0.5280446 -0.31991518 1.648356
H 0.046515174 -1.9878155 -1.1568061
H -1.1839288 1.8163409 -0.776866
H -1.7613957 -0.38656774 -1.9103302
