12

C -0.76390815 1.1738311 0.002809441
N -0.18411025 -0.15406232 -0.14497781
C 1.0624542 -0.41219342 0.40440708
N 1.7007164 0.48762968 1.0334741
C -0.85745543 -1.1495899 -0.8211522
O -1.9425223 -1.0234743 -1.3340846
H -1.7383997 1.1628289 -0.4860205
H -0.109839045 1.9179378 -0.4593884
H -0.86719006 1.4169511 1.0626734
H 1.3975936 -1.4435357 0.22781362
H 2.5879188 0.12136531 1.3586075
H -0.2852581 -2.0976882 -0.8441618
