11

C -1.65326354 -0.23377079 0.05452265
N -0.23242657 0.02421807 0.18630470
C 0.74657641 -0.06443210 -0.74262762
C 1.88324600 0.26068607 -0.05003599
N 1.54333853 0.52543229 1.23637768
N 0.26749824 0.38060202 1.37348396
H -2.11892434 0.06130668 0.99478332
H -1.83078148 -1.29733114 -0.12493192
H 2.90552620 0.31967745 -0.39254817
H -2.06910614 0.35647505 -0.76470551
H 0.55831669 -0.33286373 -1.77062324
