11

C -0.81647971 -0.71116212 -0.43018878
C 0.51506125 -0.33785269 0.09434497
C -0.88439744 1.41912864 0.02896608
N -1.61670678 0.27745781 -0.47222330
C 1.58980517 -1.10001125 0.27526978
O 0.43895947 0.98978022 0.37171430
H -1.09442859 -1.71276795 -0.74686786
H -0.82058712 2.19864927 -0.73584305
H 1.55112878 -2.15399456 0.02491448
H -1.37645747 1.82320378 0.92045395
H 2.51410257 -0.69243109 0.66945951
