11

C -0.8803274 -0.79999495 -1.1906197
C -0.12735347 -0.062266443 -0.1417119
C -0.2607099 1.1347114 0.46967056
N 0.76138425 1.3027707 1.3970411
C 1.4460763 0.21834955 1.2984235
O 0.9817429 -0.66452336 0.3922366
H -1.2593737 -1.7541302 -0.8096582
H -1.7310725 -0.19594158 -1.5162587
H -0.25099146 -1.0077654 -2.0601392
H -1.0150437 1.8935293 0.31597543
H 2.3356688 -0.06473896 1.8450406
