11

C 1.881318 -0.046360202 -0.5213175
C 0.60103256 0.0017012592 -0.16459177
C -1.4326626 0.74213237 0.4400471
N -1.5118095 -0.70006263 0.37156808
C -0.35618448 -1.1089197 0.029710911
O -0.09771258 1.1362185 0.09990818
H -1.6649168 1.086573 1.4537379
H -2.131324 1.1977807 -0.2677057
H -0.11371368 -2.1601276 -0.100386426
H 2.4734254 0.85535187 -0.63157624
H 2.3525476 -1.0042872 -0.7093946
