11

C -0.99310577 0.053712837 -0.95912105
C 1.3449762 -0.19560447 -0.41973448
C -0.77639943 0.13870381 1.1525346
N -1.6196213 -0.2843684 0.14288467
C 0.2441574 0.6717166 -0.5685206
O 0.008524463 1.1784222 0.6923828
H 2.1805727 0.13269313 0.19452761
H 0.4695968 -0.74344647 0.739451
H -1.1341952 0.21860768 2.1749291
H -1.3100755 -0.26445356 -1.9445777
H 1.5855699 -0.9059833 -1.204756
