12

C 0.31745604 -0.71019066 1.32662890
C -0.71905950 0.29117366 -1.41986508
N -1.29930649 1.15068177 -0.69195179
C 0.99893587 0.01742541 0.18050583
O 0.42203133 -0.32305007 -1.08650409
H 0.32434370 -1.79171338 1.15688958
H -0.71471198 -0.36760593 1.43588419
H 0.85131475 -0.50478770 2.26047406
H -1.03819776 -0.06361017 -2.40548574
H 2.04319563 -0.29062751 0.08433932
H -2.13697027 1.48976610 -1.15523627
H 0.95096856 1.10253859 0.31432088
