10

N 0.22547425 1.7692776 0.39294544
C -0.19963132 0.4792802 0.1633786
N -1.4017977 0.051297452 0.3577226
O -1.3342952 -1.338926 0.104310125
C -0.07869847 -1.6984657 -0.25932723
O 0.28201744 -2.8117635 -0.52126914
N 0.6470739 -0.5147621 -0.25438845
H 0.7456548 2.1776903 -0.37170053
H -0.5371211 2.3662612 0.68506205
H 1.6513233 -0.479889 -0.29673353
