10

N -0.85843925 -0.43403726 -1.76490016
C 0.03556869 0.33126181 -1.03000311
N 0.89724347 -0.21763518 2.40779257
O 1.38707224 -1.16093878 1.83967116
C 0.06693764 0.64432117 1.56838263
C 0.01673230 0.52144578 0.26567385
H -0.45856327 -0.86172508 -2.58726604
H -1.39097204 -1.09311857 -1.21673036
H -0.46937759 1.39752590 2.13662743
H 0.77379778 0.87290029 -1.61924808
