10

N 1.1756963 1.8429849 0.8529347
C -0.1813586 -0.8272302 -0.050241683
N -1.2857709 -1.5498515 0.1328766
O 0.661487 1.1835485 1.7415041
C 0.93500817 1.4078019 -0.46772996
C 0.21260582 0.27648324 -0.62526625
H 1.3645964 2.0068557 -1.2570136
H 0.54358935 -0.8854152 -1.1473962
H -1.228808 -2.3436844 0.7526969
H -2.1970453 -1.1114929 0.06763516
