12

O -1.2621269 -0.6593339 1.2367913
C 0.12673074 -0.48443118 1.1848212
C 0.5837588 0.7034742 0.34375843
O 0.8554081 0.398886 -1.0442466
C -0.14752342 0.025378518 -1.828087
O -1.2884043 -0.18992841 -1.489619
H -1.5806932 -0.63604283 0.31849527
H 0.6597516 -1.3834671 0.83348
H 0.45297888 -0.2941501 2.2132847
H 1.5505416 1.0710446 0.695122
H -0.16069081 1.5033814 0.39814964
H 0.21026897 -0.054811176 -2.8619504
