11

N -1.000596 -0.70786494 -0.8421792
C 0.8515759 0.46950102 -1.3428166
C -0.87315494 -0.54414845 0.44158363
N 0.3785297 0.40462664 2.2026303
C 0.24604444 0.22624789 0.95563036
C -0.16819903 -0.2314606 -1.9040775
O 1.0914205 0.7072186 0.012872208
H -1.583542 -0.97441 1.1379403
H 1.6405551 0.94643354 -1.9120692
H -1.7965826 -1.2520366 -1.1528974
H 1.2139488 0.95589286 2.4033828
