11

C 0.22068306 0.50341255 -0.54057579
C -0.74355224 -0.50342344 -0.08344008
N 0.68010316 1.57736305 0.30494834
C 0.65903717 -0.94178164 -0.24194697
N -1.91550381 -0.68205952 0.33330815
H -2.02368893 -1.62956391 0.70438647
H 0.72113893 1.26431015 1.26967929
H 0.00241464 2.33455007 0.27912356
H 0.21319800 0.76550117 -1.59690714
H 0.94361351 -1.56371621 -1.08829063
H 1.24255676 -1.12459230 0.65971445
