11

C 0.81134355 0.5149314 -0.6515365
C -0.41968933 -0.398739 -0.28877273
N -1.6316953 0.27918726 0.075229086
C 0.60469425 -0.73768485 0.66859806
N 1.4646516 -0.9532907 1.5044534
H -1.4426595 1.0231686 0.7365251
H 1.7408074 -0.06309992 0.57331824
H 0.57254547 1.5619558 -0.4468536
H 1.1974481 0.32073018 -1.6514435
H -2.2936304 -0.35988045 0.49831483
H -0.603816 -1.187278 -1.0178324
