9

O -0.2923368 0.7445187 1.6383343
C -0.9988958 -0.36721462 -0.4031228
C -1.9026607 -0.8291104 -1.0527278
C 0.026096057 0.22081426 0.39812914
C 1.290832 0.20896848 0.011633114
N 2.4467707 0.28565872 -0.377221
H 3.0532188 -0.47889504 -0.08279646
H -0.92449826 1.4619684 1.4955931
H -2.6985266 -1.2467086 -1.6278214
