11

N -0.23806569 1.53997975 -1.27080783
C -0.10801596 0.50309142 -0.32313040
C 0.42862744 -0.80048865 -0.67150178
N 0.41929365 -1.67580076 0.27808656
N -0.20117408 -0.88670474 1.35441418
C -0.53702894 0.52690388 0.97786252
H 0.82627635 -1.08912259 -1.63990986
H -0.62679634 2.35571023 -0.81123207
H 0.64565963 1.79903104 -1.69207686
H 0.43759865 -0.89445006 2.14987335
H -1.04637469 -1.37814939 1.64842231
