11

N -0.18601526 -1.3375245 -1.1553192
C -0.8731242 -0.72828287 -0.21313742
C -0.1477479 0.32048938 0.42024288
N -0.6889326 1.2109276 1.3588235
N 1.002455 -0.6558123 -1.1429111
C 1.1539749 0.35917208 -0.07215081
H 0.038719013 1.7652799 1.7886804
H -1.8965025 -1.0375535 -0.024209533
H 1.0445359 0.46403366 -1.4742988
H -1.2509602 0.75885904 2.0680082
H 1.8035979 -1.1195883 -1.553728
