10

O 0.033570386 1.9319603 -1.2221893
C -0.3487546 -1.3553001 -0.2595026
C 0.48713988 -1.5124725 0.7033574
C -0.40981793 0.8475497 -0.55056846
N 0.12077112 0.8090761 0.65807134
N -0.00031604368 -0.35393795 1.3818376
H 0.46839893 1.6126337 1.1664345
H 1.211539 -2.2216318 1.0928247
H -0.4942189 2.0065491 -2.0250545
H -1.0683117 -1.7644267 -0.94521034
