11

N 0.1612335 0.83415216 -2.3069618
C 0.77576935 0.19135354 -0.68220156
C -0.08315213 1.5405724 -1.3736732
C -0.24303158 -0.61082596 0.078278854
C -0.7352976 -0.15133055 1.3695239
O 0.2510556 -1.1746359 1.2796909
H -0.37899458 0.8002998 1.7610484
H -1.7124802 -0.4758162 1.719944
H 1.4206638 0.77170074 -0.02230062
H -0.8641891 -1.2685447 -0.53173083
H 1.4084228 -0.4569253 -1.2916181
