11

N 1.10205260 1.35847309 0.76162855
C 1.19906715 2.51397728 0.91896487
C -0.54089361 -0.34624111 0.26337729
C -1.02635138 -0.41457617 -1.11344025
C 0.91232248 -0.04057719 0.55648311
O -0.77773238 -1.59091216 -0.35367875
H -2.07166063 -0.20245912 -1.32697393
H -1.24071225 -0.08275699 1.05719917
H -0.33329188 -0.24416984 -1.93686093
H 1.53582368 -0.37353323 -0.27942818
H 1.24137614 -0.57722517 1.45272901
