12

N 0.645945 2.074599 0.34327337
C -0.13400762 -0.9931243 0.8501256
N -0.698448 0.42763808 -0.58990103
C -0.0854689 -1.7809569 -0.39956594
C -0.52156097 -0.81193405 -1.2126869
C 0.30699855 0.76185447 0.3023544
N 0.8663011 -0.13610962 1.1112499
H -1.0496525 -1.0067014 1.4626504
H 1.0490478 2.435714 1.1922818
H 0.3253502 -2.7654302 -0.5789923
H 0.0662989 2.68499 -0.2100587
H -0.77080387 -0.8905394 -2.270731
