10

O -0.013657617 -1.3731065 -0.96013707
C -0.40359518 -0.3882824 -0.05035996
C 0.68516177 0.0075623747 0.9447594
O 0.6337379 1.3844912 0.47231376
C -0.26108572 1.0721829 -0.50246644
O -0.6956321 1.7695777 -1.3648044
H -0.65449446 -1.3935333 -1.6814991
H -1.3819755 -0.583134 0.40947926
H 1.6542542 -0.44402215 0.7290781
H 0.4372867 -0.051735997 2.0036366
