9

O 1.6647239 -0.6925044 -0.2515826
C 0.48657253 -0.8848432 -0.67797256
C -0.5256572 -0.13746078 -0.09764036
O -1.7552352 0.056720477 -0.5496429
C 0.81364363 0.7790822 0.8274975
N -0.24714552 0.43632385 1.3089322
H -2.2894197 0.52086073 0.107958674
H 0.2740689 -1.6171578 -1.4600593
H 1.5784485 1.538979 0.7925094
