9

O -0.24076371 2.0769022 -0.39280018
C -0.48389438 -0.5007677 0.026130682
C 0.53951615 -1.1262097 0.92023456
O 1.722646 -0.90989906 0.83543265
C -0.22929765 0.77855235 -0.57310593
N 2.5866828e-05 -0.12501171 -1.4005857
H 0.07024772 2.5044656 -1.2070122
H -1.5017743 -0.8809327 0.10938062
H 0.123294316 -1.8170987 1.6823255
