9

O 1.88341660 -0.22194114 -0.94702557
C 0.83876408 -0.82016281 -1.01492145
C -0.44434211 -0.31666142 -0.43346347
O -0.31528123 0.65411247 1.99962902
C -0.42305559 0.56904100 0.69597972
N -0.59193947 1.22672054 -0.34933168
H 0.75848870 -1.80332988 -1.52314305
H -1.34511775 -0.87800210 -0.68051692
H -0.36093321 1.59022331 2.25279334
