11

O 0.56599590 1.42047376 1.72725448
C -0.55513569 -1.27423889 -0.29575265
N -0.68244913 -0.31645015 0.81707756
C 0.23922613 -0.37950512 -1.25535357
C 0.22593864 0.59992872 0.75185270
O 0.93307766 0.58544530 -0.36464840
H -1.55403017 -1.44792000 -0.70908540
H -1.18660748 -0.49877175 1.67258707
H 1.03073825 -0.88332959 -1.81525043
H -0.34439741 0.25076866 -1.95449917
H 1.32764348 1.94359906 1.42581767
