11

N -1.4706823 -0.18161018 -2.5010173
C 1.2715671 0.2063144 0.12481783
C -0.86740375 -0.0047677355 -1.4481999
C -0.51175267 0.11728925 1.193234
C -0.18227386 0.18393871 -0.27289343
O 0.89265203 0.1158055 1.508502
H -1.0209002 0.9993153 1.6038957
H 1.8107109 1.1380849 -0.091930315
H -1.0159686 -0.7890336 1.5516411
H -0.78985643 -1.138878 -1.4731908
H 1.8839077 -0.64645845 -0.1948593
