11

N 2.36976040 -0.67441633 -1.16093022
C -0.98321318 0.89553636 -0.38856922
C -0.70266162 -0.59998713 1.02315709
C 0.13985844 -0.08704949 -0.12355307
C 1.31669617 -0.34645132 -0.61974235
O -1.72065214 0.36910141 0.72572166
H -1.51835692 0.75954313 -1.33538399
H -1.07069784 -1.62674241 0.91782231
H -0.73653692 1.95565051 -0.25242754
H 3.19094232 -0.18722974 -0.81411607
H -0.28513878 -0.45795552 2.02802149
