11

N 0.32606193 2.927113 0.45468047
C -0.20754011 1.9079819 0.35147244
C -0.8558449 0.6001232 0.20492142
C 0.009190229 -0.35586512 -0.5968378
C 0.9160954 -1.2915248 0.065337986
O -0.33008498 -1.7201039 -0.46988207
H -1.825222 0.7358142 -0.28740567
H -1.0499479 0.17596118 1.1959481
H 0.23755936 -0.035165783 -1.6131924
H 1.8002074 -1.6512244 -0.45804638
H 0.9795255 -1.29311 1.153004
