10

C 0.8208601 -0.09532183 0.78382385
C 0.44823283 1.1353117 0.25967485
N -0.5110559 1.2605445 -0.65904015
C -1.0931493 0.12728028 -1.0440866
N -0.8250565 -1.1049703 -0.6156272
C 0.13618073 -1.2032801 0.29980114
H 1.6019919 -0.18637374 1.529128
H 0.9324208 2.0552301 0.58278847
H -1.8767227 0.21694483 -1.7943343
H 0.36629805 -2.2053654 0.6578723
