11

O -1.4761535 1.6266788 1.2679882
C -0.7524654 0.84010184 0.69241136
N -0.757793 0.5583032 -0.65441626
C 0.22457176 -0.426301 -1.0346607
C 0.873995 -0.7440121 0.28969055
C 0.32277453 -0.026676785 1.265575
H -1.3961039 1.009508 -1.28566
H 0.95217365 -0.028377675 -1.7543291
H -0.2347268 -1.3163832 -1.4829911
H 1.6773022 -1.4670998 0.37742415
H 0.56642514 -0.025741125 2.318968
