10

N -0.3227038 -1.0004568 -1.5080882
C -0.076430336 -0.44137585 -0.26865026
N -0.032844793 -1.1738234 0.8156215
O 0.314526 -0.30664182 1.839019
C 0.45258555 0.9218242 1.3355237
C 0.22433625 0.9300785 0.0032017916
H -0.8836019 -0.42731455 -2.1196177
H -0.6725935 -1.9480628 -1.4517025
H 0.72218615 1.6912328 2.0451643
H 0.27454036 1.7545396 -0.69047207
