10

N -0.16573056 1.32201877 -0.00239290
C -0.16478247 -0.94435494 -0.14737487
N 0.61605623 0.28477774 1.92559954
O -0.40123858 0.94812585 -1.34784520
C 0.15890468 0.17375356 0.74491357
C -0.45490778 -0.39628956 -1.33290935
H -0.73589668 -0.83072523 -2.28326203
H -0.12644783 -1.99369902 0.10356421
H 0.75605974 -0.63304392 2.34201607
H 0.51798323 2.06943663 -0.00230947
