11

N -1.9445369 0.14492887 0.7698125
C -0.8436527 -0.55982673 0.34831035
O 2.544825 0.2899757 -0.9134797
C 1.4176177 -0.31004947 -0.5103898
C 0.30526266 0.28000057 -0.059491523
O -0.82342637 -1.7781565 0.33905822
H -2.7836366 -0.4005794 0.8982973
H -2.0597105 1.113437 0.5187444
H 0.2375629 1.3645017 0.0230717
H 2.4587815 1.2468103 -0.8282388
H 1.4909136 -1.3910421 -0.5856947
