11

N -1.825572 0.6882513 0.4709066
C 1.6344752 -0.43678603 -0.16257021
O 0.07078602 1.8802938 0.11879849
C 0.21710202 -0.47899508 -0.047113597
C -0.4954434 0.7974067 0.18041438
O 2.039408 -1.3313278 -0.9653345
H 0.8175719 -1.3775445 -1.1513196
H -2.3245535 -0.16611825 0.2843344
H 2.3493915 0.23995139 0.31106484
H -0.13036038 -1.3633184 0.49695203
H -2.352805 1.548187 0.46386713
