11

C 0.50912833 -0.9631173 1.5017576
C 0.16406138 -0.12529887 0.31960076
N 0.6335244 1.0339124 -0.008225927
C -0.032853007 1.3591985 -1.1816581
C -0.8785915 0.3597817 -1.5003783
O -0.7642563 -0.6051859 -0.54372585
H -0.3832521 -1.2001286 2.0886896
H 1.2131238 -0.41585195 2.1290193
H 0.9681773 -1.9090614 1.1956625
H 0.15050675 2.2884102 -1.7026885
H -1.579569 0.17734104 -2.2980533
