11

C 0.76234487 -1.65322951 1.16038447
C 0.49954032 -0.29768883 0.71144029
N 0.02040712 -1.04537266 1.95591833
C -0.48003769 1.27522685 -1.06241709
C -0.52890345 -0.06135453 -0.35805103
O -1.33559077 -0.92409724 -0.62546688
H -0.64839154 2.08260147 -0.34176330
H 1.22651789 0.49455809 0.88630048
H 1.22577139 -2.62192778 1.01989370
H -1.24710424 1.31247240 -1.83664384
H 0.50544616 1.43881156 -1.50959535
