12

N 0.25595418 -1.7090224 0.13912214
C -0.12670839 0.49807784 1.1239196
C 0.05674434 -0.35848743 -0.13477075
N 0.10697612 1.9463462 0.77499247
C -0.1345024 0.16086583 -1.3607689
N -0.6963984 1.519573 -1.4600706
C -0.3169665 1.9465857 -0.37715375
H 0.40074393 -2.2753868 -0.6868195
H -0.03771527 -0.3846715 -2.2932835
H 0.6396763 0.24296732 1.8673257
H -1.1084276 0.3149604 1.5747536
H 0.96062386 -1.9018081 0.8327535
