9

O -1.26921848 0.71970391 1.38768452
C -0.34087805 -1.07260247 -0.01488015
N 1.07978421 0.11836493 -0.95757940
N 0.48778723 0.99210665 -0.14793246
C -0.42106507 0.24613507 0.46050016
N 0.63096043 -1.11409264 -0.92094109
H 1.83399870 0.39287375 -1.56479690
H -1.08221657 1.66060314 1.50473842
H -0.91915222 -1.94309269 0.25320689
