9

O -0.10053018 1.865799 -0.68453634
C -0.11830988 0.6167658 -0.21408124
N -0.9043513 -1.3004836 0.30132318
N 0.40938243 -1.2270292 0.84597
C 0.8936962 -0.033276066 0.4853593
N -1.1625471 -0.19943956 -0.36653706
H -0.9546106 2.027774 -1.1108139
H 1.8872846 0.29942837 0.74670625
H 0.049985785 -2.0495389 -0.0033903671
