9

O 2.14889999 1.08585672 -1.63416909
C 1.11617396 0.62870462 -1.33881949
N -0.00658273 0.16936239 -1.22684585
C -0.07586907 -0.18729449 1.21867446
C -0.77488449 -0.30074871 -0.12184910
O 1.03422281 0.25266640 1.34547218
H -1.05118766 -1.35522929 -0.26743542
H -0.66770223 -0.54381586 2.08376405
H -1.72307053 0.25049799 -0.05879203
