10

N 1.5208584 0.60690993 -1.5771803
C 0.34748453 0.641332 -1.3256434
C -0.52641964 -0.13077313 -0.5276185
C 0.5332414 -0.19877565 0.6005849
C -0.9112203 -0.14838369 0.959027
H -1.3042753 0.74387866 1.4421407
H 1.680963 -0.20737563 -0.52953094
H -0.7713664 -1.0582749 -1.0440602
H -1.4764645 -1.0513957 1.1792643
H 0.9071986 0.80285823 0.8230165
