11

N -0.05122660 2.11141713 -1.33338668
C 0.67785631 -0.86108196 0.38320809
C -0.80079949 -0.63302093 0.73094593
C -1.19661530 0.71717082 0.29087061
C -0.06316474 1.06319252 -0.60933436
O 0.95784155 0.14580038 -0.58183611
H 1.32946664 -0.71342148 1.25107564
H -1.09889163 -0.89354421 1.74987984
H -1.45045255 -1.23592245 0.06357115
H 0.80554035 2.13755617 -1.88742910
H 0.89044536 -1.83814598 -0.05756494
