11

N -0.19657965 -2.381954 0.5021143
C 0.21210025 0.80464965 -0.8753029
C -0.135065 -1.1396701 0.28339818
C -0.28988332 1.0860798 0.5303551
C -0.6142619 -0.07750709 1.2459999
O 0.33610755 -0.60659325 -0.9011694
H 0.12118487 -2.9029775 -0.3179834
H 1.1774503 1.2647009 -1.1071441
H -0.57529944 2.0875914 0.8462962
H 0.48986483 0.7395383 1.4142997
H -0.52561855 1.1261415 -1.6208638
