10

O 0.035624523 -2.554145 0.51610816
C -0.23863633 -1.9938602 -0.5105993
O -0.23457688 -0.6686828 -0.69768244
C 0.13463673 0.096383415 0.46236405
C 0.10285961 1.5126612 0.11024158
C 0.087124266 2.6877592 -0.13791609
H -0.5312595 -2.4882672 -1.4477634
H -0.56441027 -0.119790435 1.2766818
H 1.1345077 -0.20492461 0.79297316
H 0.074130245 3.7328668 -0.36440724
