10

O 1.0276766 0.36811137 1.086679
C 0.15005831 0.77076024 0.1758183
O 0.22667079 -1.1934115 -0.6033228
C -1.2430378 0.6244734 0.4592528
C 0.51998115 0.10905131 -1.1885034
C -0.23247734 -0.67239046 0.5728986
H -0.16368404 0.33343527 -2.0053024
H 1.575348 0.16803928 -1.4547039
H -0.45733422 -1.3027647 1.4220502
H -1.4032016 0.7946957 1.5351336
