11

N -0.4218569 -1.6503273 -1.06213
C -0.23324728 -0.489998 -0.3584329
C 1.0115288 -0.13092202 0.20065147
N 1.1612709 1.0167568 0.82250684
C 0.06371358 1.7910745 0.8728849
N -1.1212479 1.4914157 0.36995864
N -1.2778652 0.32663408 -0.25087824
H 0.17846453 -2.433139 -0.86117744
H -1.3878685 -1.8848202 -1.2379992
H 1.8768433 -0.7882409 0.13334845
H 0.15026435 2.7515664 1.3712676
