11

N -0.5363135 -1.2145247 -0.6155614
C 0.052022085 -1.2709242 1.6224333
C -0.18921629 0.21653646 -0.5289334
N -0.20560747 -1.7043624 0.4866529
C -0.9349954 1.0137451 0.37869185
N 0.15252192 0.5777802 0.92014575
N 0.49912333 0.666495 -1.6650196
H 1.3051076 0.091694236 -1.8677955
H 0.95149815 -1.510733 2.1796312
H -1.8503659 1.4915761 0.69075876
H 0.7562254 1.6427175 -1.6010039
