11

N -1.141452 0.14194714 0.021694465
C 0.2074741 0.32861534 -0.111214615
C 0.38170022 1.7802832 -0.19928333
N -0.3757536 -1.7463249 0.17395777
C 0.72296447 -0.9512398 -0.043500464
N -1.5178415 -1.0819082 0.22751947
H -0.41029102 -2.7490017 0.27077883
H 1.7207385 -1.3549619 -0.10570115
H 0.64007246 2.19096 0.7833011
H -1.3109027 1.3133951 -0.062112078
H 1.0832909 2.128236 -0.95544
