10

O 1.00561877 1.37198412 -1.42994462
C 0.68489530 0.56427030 -0.37959001
C -0.46215282 -0.33875812 -0.33823663
O 0.81953187 -0.83900681 -0.58409496
C -0.42750458 -0.51807708 1.96905774
O -1.09612229 -0.74609053 0.86763030
H 0.71185345 0.95281879 -2.25016314
H 1.08022370 0.93852261 0.55544375
H -1.19402631 -0.44007142 -1.14057931
H -1.12231687 -0.94559178 2.73047630
