10

O 1.5084714 0.33044443 -1.5980211
C -0.6969281 0.44310328 1.9095296
C 0.8614454 0.13331136 -0.41438016
O 0.50029236 -1.2072006 -0.095425464
C -0.53194827 -0.2835289 -0.28176007
O -1.337961 0.023820281 0.84865224
H -1.5411421 0.5795406 2.6264527
H 1.1329573 -0.26127797 -2.2640615
H 1.3091071 0.6992441 0.3918187
H -1.2042943 -0.45745665 -1.1228052
