9

O -0.83703905 0.51218206 0.9649531
C 0.37281767 0.32994592 -0.89892405
C 0.5209508 -0.8768843 -0.1314215
C -0.45798102 1.1259719 -0.18336663
C -0.23363082 -0.7024621 0.9809015
H 0.8291802 0.5568408 -1.8526301
H -0.44317222 -1.315688 1.8451504
H -0.8633087 2.114902 -0.3376042
H 1.1121831 -1.7448082 -0.38705853
