9

O 2.5033011 -0.30426362 -0.049464192
C 1.4268574 0.2204821 -0.13456936
C 0.21140765 -0.23357981 0.6656248
C -1.0228581 -0.09394263 -0.106924295
C -2.0108302 0.037250854 -0.7778591
H 1.2515994 1.0972482 -0.7917688
H 0.15979293 0.39300188 1.5661225
H 0.37582487 -1.2648193 0.9970831
H -2.8950949 0.14862238 -1.3682448
