11

N 0.46351337 0.3368413 -2.9251125
C 0.3591092 0.629546 -1.813643
C 0.20817406 0.96610016 -0.39317846
C -0.5989606 -0.0873569 0.3433773
C 0.058672592 -1.1805663 1.0524082
O -0.4739688 -0.060336016 1.7521946
H -0.27917632 1.943716 -0.30761716
H 1.1977025 1.0556053 0.06743963
H -1.6141669 -0.23545243 -0.023627883
H -0.4665506 -2.1228015 1.204663
H 1.1456513 -1.2452956 1.0430962
