11

N 0.34889408 -1.32075006 -2.31713966
C -0.46964730 0.41800069 0.63688340
C 0.78183358 1.16019200 0.23764250
C -0.65742358 -1.00197914 0.07975986
C -0.10004853 -1.19660267 -1.26098721
O -1.29907040 0.86330665 1.39002344
H 0.86862873 2.07848778 0.81943738
H 0.74257189 1.40164849 -0.83016352
H -0.15849919 -1.69460688 0.76878895
H -1.72462787 -1.24178770 0.08670250
H 1.66738839 0.53409087 0.38905230
