14

C -1.84745309 -0.14852664 0.84837707
N -1.13779539 0.31528619 -0.33646363
C 0.24721391 0.13901275 -0.37587493
O 0.85988640 -1.05257155 0.22162314
N 1.33395235 1.03681983 0.13855208
C 1.86665830 -0.23189568 -0.41073985
N 1.04181915 0.00467734 -1.62313402
H -1.57560973 0.38960938 1.76763129
H -1.63129357 -1.20904982 0.99863638
H -2.92222523 -0.03338732 0.68847509
H -1.37075908 1.25682740 -0.61497112
H 0.83648243 -0.89638997 -2.06222308
H 1.39147499 0.99080783 1.15705690
H 2.90764887 -0.56121976 -0.39694565
