14

C -0.19479883 0.32953787 -0.1989451
N -0.65060544 1.7229501 -0.4570524
C 0.81856334 1.5967 -0.60810536
O 0.8912276 0.852304 0.6382195
N 0.6847131 0.38418528 -1.4335313
C -0.29521126 -1.7279454 1.0216675
N -0.9947482 -0.72297174 0.22414091
H -1.8473513 -0.37841648 0.6472516
H 1.4964074 -0.22803773 -1.3030373
H -0.9992714 -2.5239425 1.26306
H 1.5156692 2.4165578 -0.7756789
H 0.5136625 -2.1617203 0.4227833
H -1.0779287 1.769115 -1.3859079
H 0.13967216 -1.3283157 1.9451356
