11

N 1.8482192 -0.10799845 -1.4376011
C 0.59903777 -0.13242799 -0.8678486
N -0.54700303 -0.24547674 -1.4420458
N -1.5008056 -0.070065215 -0.43325973
C -0.8348732 0.09120717 0.6562832
N -1.2976754 0.19521497 1.942729
O 0.514094 0.07192578 0.47452354
H 2.5437765 -0.64964116 -0.9413382
H 1.8007113 -0.35222682 -2.4171326
H -0.8241411 0.89336747 2.5005825
H -2.3013403 0.30612096 1.9651084
