11

N 1.71138675 0.01742022 0.46905388
C -1.02175963 0.20264592 -0.22540513
C 2.35306296 -0.77516636 -0.16786975
N 1.01094007 0.67726957 1.23542527
C -0.28020448 1.03729110 0.67106611
N -0.46381767 1.18824191 -0.80384732
N -1.80542552 -0.85560441 -0.47640655
H -1.99064211 -1.52339227 0.25224909
H -1.88357828 -1.16797639 -1.43042907
H 3.14790224 -0.53374308 -0.86696455
H -0.77786453 1.73301382 1.34312784
