11

N 0.7641963 -1.0228592 -0.7236235
C 1.298557 -0.60714364 1.4858302
C -1.2742977 -0.33494103 0.5108142
N -0.29689112 0.3428947 0.992541
C -0.34520957 -0.047829334 -0.5159166
N -0.5297137 0.8101128 -1.5977024
N 1.4454516 -0.9937854 0.31159672
H -2.1147933 -0.8955059 0.89419955
H -1.2711251 1.4819568 -1.4672252
H 1.991976 0.030519314 2.018345
H 0.33184946 1.236581 -1.9088593
