10

O 0.21855833 -0.944654 0.959439
C -0.29573387 -1.2076907 -0.37537962
O -1.2754178 0.8423168 0.20524408
C 0.9226198 0.92180824 -0.67436796
C -0.37078285 0.3333805 -0.6256784
C 0.29117858 0.40150353 0.7602218
H 0.51186335 1.0841584 1.5689347
H 0.441242 -1.732484 -0.980965
H 0.81998104 2.0073802 -0.52188593
H -1.2635088 -1.705719 -0.31556258
