10

O 0.034501303 -2.5526001 0.51676035
C -0.23973328 -1.9900929 -0.5115905
O -0.23655242 -0.66697055 -0.69782597
C 0.13397285 0.09670801 0.46306542
C 0.102442525 1.5116867 0.11337654
C 0.08895668 2.6842914 -0.13876925
H -0.53177476 -2.486256 -1.4484968
H -0.56317174 -0.1212502 1.2783432
H 1.1344398 -0.20374787 0.79032505
H 0.07691902 3.728232 -0.36518815
