10

O -0.23987283 -1.3586727 -1.7725732
C -0.076269045 -0.61505485 -0.8343457
O -0.4255731 0.52960414 1.2068198
C 0.7270203 0.9089098 0.6205821
C 1.0232937 0.31886435 -0.54810745
C -1.0276091 -0.45059466 0.35701138
H -1.142005 -1.381938 0.91879666
H -2.0117693 -0.091699734 0.044018693
H 1.8913316 0.4830795 -1.1691074
H 1.2814528 1.657502 1.1769052
