11

N 1.3591918 -1.0986099 1.0723083
C -0.80436 0.52650553 -1.23179
C -0.4052626 0.60862887 1.0184648
O -1.1691937 1.1255506 -0.07475971
C 0.5202138 -0.42298454 0.40960744
O -1.278464 0.765648 -2.305303
N 0.19694696 -0.392507 -0.9419071
H 0.15565515 1.4224076 1.4845201
H -1.0789709 0.15756309 1.7516166
H 1.8912839 -1.7394269 0.4850306
H 0.6129594 -0.9527756 -1.6677879
