11

C -0.77152514 0.877636 1.545887
N 0.5838245 0.51766944 1.1761805
C 0.8338222 -0.05385469 0.092328526
O -0.14412676 -0.3888827 -0.83813363
C 0.25183165 -1.026664 -1.9671712
O 1.3767873 -1.3336926 -2.2404444
H -0.7871357 1.9512815 1.7513844
H -1.0152706 0.36326268 2.4804928
H -1.5370657 0.6431751 0.796965
H 1.8404628 -0.3324289 -0.20346613
H -0.6316046 -1.217502 -2.5940228
