11

C -0.4050062 -1.0609428 0.1872331
N -1.2080206 -0.023411538 0.32261154
C -0.90228355 1.4036746 0.15401074
O 1.7524407 -2.5940342 -0.47009984
C 1.8361646 -1.4076641 -0.4038253
O 0.8297993 -0.52210927 -0.13334624
H -0.4967832 1.5913184 -0.8432597
H 2.755176 -0.8229415 -0.5680328
H -1.8290336 1.9686817 0.27828333
H -0.17679761 1.7304776 0.903728
H -2.155656 -0.2630486 0.57269734
