11

C 0.0023216275 -0.6328003 -1.8300033
C -0.2475651 -0.1550564 -0.49279952
N 0.8818176 0.19688559 0.075645536
C 0.6092091 0.57875204 1.3870083
C -0.7306725 0.48729563 1.5244675
O -1.281635 0.030585194 0.34380892
H 1.3610169 0.9127102 2.0846658
H -1.4237852 0.7051463 2.3215075
H 1.3844011 -0.059792742 -1.0003326
H 0.16383472 -1.7146201 -1.8178002
H -0.71894324 -0.3491054 -2.5961676
