11

C -0.77687034 -0.77618167 -1.71462815
C -0.27088486 -0.25724419 -0.58851089
N 0.75933127 0.35405134 1.30307810
C 0.73428205 -0.64353576 0.34385319
C -0.12495222 1.28338151 1.02596279
O -0.77069896 0.98787092 -0.08777462
H 1.38103480 -1.50098693 0.37405016
H -0.40105712 -1.72393665 -2.08034090
H -1.56041750 -0.27336082 -2.26683770
H 1.36532021 0.36783508 2.11057525
H -0.33508724 2.18210711 1.58057304
