10

O -1.4686347 -2.187425 -0.15884504
C -0.7943255 -1.3140302 0.3268778
C -0.23025018 -0.18590799 -0.49273023
C 1.1059175 0.4255404 -0.14969292
O 0.80259967 0.7906588 1.1989889
C -0.051123798 1.1821315 0.116692156
H 2.052473 0.6137114 -0.6341044
H -0.55681944 -1.292852 1.4087371
H -0.488029 -0.22863995 -1.5502162
H -0.3718077 2.1968129 -0.06570711
