10

O 0.33703527 -0.5162448 -2.2348375
C 0.14894602 -0.32497102 -1.0689503
C -0.9083995 0.484674 -0.26625392
C 0.009265315 0.272066 0.9388436
O 0.07247009 -1.1278161 1.1379874
C 0.97585297 -0.55455524 0.18945608
H -1.9084656 0.06094943 -0.17251518
H -0.9662986 1.5143616 -0.63405293
H 0.20485313 0.92312413 1.7821137
H 2.034741 -0.7315878 0.32820895
