10

O 0.74809283 0.5016052 1.4150224
C 1.011325 -0.050308768 0.1981035
C -0.25476336 -1.0788902 -0.25020376
C -1.061486 0.17932007 -0.09625469
O -0.4521911 -2.2660956 0.043956876
C 0.044890065 1.0658923 0.2164765
H 0.21572378 2.1167805 0.050030883
H -0.13352433 -0.7694846 -1.3553092
H 2.0201378 -0.025398832 -0.2095786
H -2.1382048 0.3265797 -0.012243897
