9

N -0.317061 0.8202769 0.4306061
C 0.19173038 -0.25519043 -0.43586317
C -1.2660308 -0.31868732 -0.06644158
C 1.122773 -1.1816611 0.19522531
N 1.8602364 -1.9178063 0.6855883
H -0.095057674 0.79428 1.4184948
H -0.26340672 1.7548859 0.033130743
H 0.58834374 0.1473221 -1.372193
H -1.8215276 0.15658017 -0.8885477
