9

N 1.64346400 -1.32394758 -1.77614202
C 0.80929797 -0.78446281 -1.19361211
C -0.25381809 -0.10404054 -0.46541522
C -0.73423464 -0.68386069 0.83788074
N 0.16439304 0.59342099 0.76133435
H 1.11456493 0.47081751 1.09000923
H -0.16784972 1.55086693 0.84660712
H -1.74000787 -0.27450305 1.01440519
H -0.83581003 0.55570937 -1.11506703
