9

O -1.9652003 0.42551738 0.08002643
C -0.65492433 0.13276416 0.032159727
N -0.11056071 -0.8975672 0.6556863
N 1.1749743 -0.78161114 0.32708097
N 1.4971681 0.22651419 -0.44911587
C 0.33834013 0.84342635 -0.6618377
H -2.399183 -0.2384187 0.6291368
H 1.8607446 -1.4400635 0.65792906
H 0.25864115 1.7294387 -1.2710656
