9

O -1.67190395 -0.60622594 0.24641642
C -0.35506464 -0.22759220 0.22235593
N 0.43821187 -0.32533018 1.47128013
N -0.18245441 0.96078127 -0.57603985
N 1.00290240 1.15286826 -0.90362540
C 0.67396974 -1.15839426 0.54080912
H -2.20529725 0.18680365 0.09998864
H 1.30120928 -2.01648021 0.34301702
H 0.99842690 2.03356986 -1.44420191
