9

O -0.465117 -0.7665709 1.9297827
C -0.5191973 -0.4259057 0.6128607
N -1.2948866 -0.68154967 -0.3192983
N 0.9886263 0.67257047 -0.9061331
N 0.39643514 0.27882287 -1.9349798
C 0.43357927 0.6722837 0.267714
H 1.1393542 0.06626987 -2.6257122
H 0.5262998 1.5544281 0.8974032
H -1.205094 -1.3703488 2.078363
