11

O -0.98482230 -1.87096723 -1.02517363
C 0.66119845 0.57198979 0.81034092
N -0.50713361 1.32672655 0.30268994
C -1.19354033 0.47756945 -0.35046688
O 1.85335938 1.22614483 0.58238811
C -0.47966409 -0.82947122 -0.37223761
N 0.62024566 -0.78185819 0.26483197
H 0.54795573 0.51592920 1.90077713
H 1.99671564 1.28405251 -0.37162077
H -0.37423894 -2.61402218 -0.90680879
H -2.14007524 0.69390671 -0.83472054
