12

O -0.6622133 1.4912851 -0.8157433
C 0.18690696 0.41775823 -1.1342444
C 0.48194697 -0.40258747 0.121397324
O 1.0381528 0.44976914 1.0891889
C -0.7906346 -1.0161217 0.66970235
O -1.1351527 -0.825469 1.8122654
H -0.25933614 1.9200146 -0.045840453
H 1.1396589 0.75540745 -1.5649558
H -0.32541016 -0.19718973 -1.8836945
H 1.1685414 -1.2282566 -0.13351032
H 0.52931255 0.2950234 1.9031265
H -1.3717731 -1.6596332 -0.017691879
