12

O -0.16795279 0.81040867 -1.48164284
C -0.60822155 0.79685494 -0.15364071
C 0.44406118 0.36099070 0.83921462
O 1.67614564 -0.00635795 0.28082827
C -0.68712971 -0.57008487 0.48387219
O -0.34398573 -1.61139248 -0.38369812
H -1.32007732 1.57804814 0.09958860
H 1.69455974 0.42806969 -0.58896865
H -0.33707656 -0.08843243 -1.81484846
H 0.61969688 -1.70404572 -0.30141203
H 0.50611668 0.80751817 1.82736373
H -1.47613690 -0.80157664 1.19334321
