10

C 0.6575234 0.926566 0.80250543
C 1.3402535 -0.13100581 0.35016483
N -0.2026901 0.95870805 -0.35922152
C -1.356203 0.09242768 -0.28690195
C -0.67434967 -0.9668436 -0.7324627
N 0.55286807 -0.21571139 -0.85961145
H 0.6781464 1.6422511 1.6101606
H 2.2173204 -0.7137888 0.5862526
H -0.8444069 -1.9847667 -1.0469753
H -2.3684623 0.39216352 -0.063910745
