10

C 0.12165848 0.43433008 -1.3022047
C -0.54293275 1.2015618 -0.38006487
N 1.0027678 -0.46624964 -0.6980096
C 0.64232594 -1.127624 0.48653966
C -0.019560823 -0.29034886 1.3409984
N 0.26750776 0.8979277 0.68534577
H 0.0051698517 0.3753303 -2.379981
H 0.8620593 -2.1878228 0.5500341
H -0.80104685 -0.47271866 2.0710673
H -1.5379487 1.635614 -0.37372515
