11

N 1.3287059 1.0642363 -0.7658286
C -1.6265725 -0.72217244 0.23040064
C 0.36460263 0.32145223 -0.061031647
O -0.50794244 -1.4992633 0.8474292
C 0.60536534 -0.86913794 0.6045213
O -2.7349432 -1.1583259 0.34628347
N -1.0964206 0.38009068 -0.34084332
H 1.3432244 0.78558475 -1.7423505
H 1.1362426 2.058328 -0.730706
H 1.5425502 -1.3047154 0.92692494
H -0.35481215 0.9439231 0.6852005
