11

N 0.9485403 1.1414325 1.1229174
C 0.120554656 0.32226494 0.35730267
C -1.2037147 0.12861158 0.31273755
O -1.5110735 -0.7278012 -0.7389216
C -0.34877542 -1.0889934 -1.3602959
O -0.2776744 -1.8055608 -2.322232
N 0.6637574 -0.4682999 -0.6557905
H 1.6164657 0.6173207 1.6769646
H 0.42067438 1.7579483 1.7255914
H -2.0252352 0.5000569 0.9039229
H 1.5964808 -0.3769796 -1.0221968
