11

C -1.307003 0.10366804 -0.7845004
O 0.069135 -0.016388819 -1.0820322
C 0.81760395 -0.5316061 -0.01759533
C 1.0222489 0.4938872 1.086357
O 1.2842791 0.20497304 2.2255564
H -1.7497026 -0.87317234 -0.5401833
H -1.4871688 0.7925474 0.055480614
H -1.790507 0.5049664 -1.6756613
H 1.8082616 -0.7768871 -0.41902593
H 0.3851525 -1.451363 0.40683153
H 0.9477003 1.5493753 0.7447734
