12

N -0.96130943 -0.28384826 -0.601186
C 0.1760659 0.3898584 -0.6943586
N 0.44879606 1.218274 -1.7783781
C -0.98711884 -0.85510576 0.6596544
O -1.7682112 -1.8238747 1.1241044
C 0.9733773 0.23161216 0.45078358
N 0.2642296 -0.5623785 1.2697194
H 1.9011887 0.7064538 0.7362195
H -0.15199903 0.99743426 -2.5608726
H 1.4199488 1.2346647 -2.0507212
H -1.8370552 -0.33910227 1.2664863
H 0.5220876 -0.91398805 2.1785488
