11

C 1.9294807 1.0087574 -0.30944338
C 0.6827907 0.5877823 0.4042943
C -1.4160336 -0.74714136 0.04560809
O -0.10558923 1.5327698 0.8340597
C -0.056858093 -0.41854894 -0.36813712
N 2.88689 1.3518188 -0.8562458
H -1.5869886 -0.4456913 1.0834101
H 0.33661574 -0.84719443 -1.2936809
H 1.0798589 -0.1484381 1.2057241
H -1.6839489 -1.7808348 -0.18810558
H -2.0662174 -0.09327924 -0.5574835
