11

C -0.04402008 -0.2825524 0.0653505
C 0.48676273 -0.5956273 1.0932
C -0.6119325 1.2770559 -1.5231738
C 1.143791 -0.9606365 2.351193
O -0.65493315 -0.036299072 -1.0775467
N -1.2601328 1.2479515 -2.6795754
H -1.6657925 0.40395316 -3.0800195
H 0.40417355 -1.1913599 3.1251316
H -1.3487962 2.108661 -3.1939933
H 1.7840117 -1.8376999 2.2124531
H 1.7668682 -0.13344659 2.706981
