11

C -0.13204159 -0.009860994 0.24037246
C 0.7132466 0.35860696 1.4170846
C 0.053868778 0.2298719 -1.1211474
N -1.2784697 -0.6948813 0.36290407
N -1.0914909 -0.33933938 -1.7790685
N -1.7992927 -0.9177472 -0.8230694
H 0.71764654 0.8980736 -1.6537722
H 0.15781613 0.1401076 2.3312917
H 1.6435786 -0.21654767 1.4278996
H 0.97057843 1.4215629 1.4018308
H 0.044559628 -0.8698464 -1.8043256
