11

O 1.04498202 0.30913369 1.87387320
C -0.13231097 0.09324706 1.68733776
N -0.64634097 -0.43869216 0.53978759
C 0.19005084 -0.58466592 -0.61791586
C 0.33561613 0.70722331 -1.40062292
O -0.23942243 1.72567998 -1.11870981
H -0.20147643 -1.36169658 -1.28344146
H -1.64680168 -0.46286733 0.43106046
H 1.18574765 -0.90476748 -0.28900145
H 1.02358899 0.63603624 -2.26877551
H -0.91363266 0.28136916 2.44640782
