11

O 0.387194 1.847224 -0.85126406
C 0.79908097 -0.42457277 1.4333588
N -0.40577903 -0.18121918 0.8390954
C -0.03529908 0.8442405 -1.3640233
C -0.5501126 -0.34834722 -0.5794859
O 1.7434425 -0.94206786 0.87856025
H -0.082525015 0.716577 -2.4656289
H 0.017879907 -1.2351924 -0.88436615
H -1.5985992 -0.52280766 -0.84450287
H -1.084543 0.36590528 1.3423468
H 0.80926055 -0.11973962 2.4959095
