11

O 1.22065434 1.39997017 -1.18669955
C 0.36683505 0.62027415 -0.50212714
C -1.14170581 -0.35494755 0.40239511
N -1.00717383 0.94169736 -0.35467798
C 0.33744790 -0.57050496 0.10856065
O 1.16909503 -1.66225657 0.12254521
H 2.07309809 0.94906903 -1.22453709
H 1.42941856 -1.83818455 1.03664230
H -1.41908756 -0.20519895 1.45215337
H -1.18376295 1.76015945 0.22603142
H -1.84481836 -1.04007781 -0.08028628
