11

O 1.3710409 1.202049 -0.4220548
C 0.6978384 0.21434215 0.30820036
C -0.794889 0.52476805 0.584261
N -1.1155536 -0.71251243 -0.12745665
C 0.16711617 -0.9712725 -0.5237698
O 0.665652 -1.7710464 -1.2757239
H 1.9777787 0.75222284 -1.0242043
H 1.2514638 -0.0964988 1.2040831
H -1.1003911 0.52654666 1.6339533
H -1.1258632 1.433888 0.07861596
H -1.9941926 -1.1024868 -0.43590426
