11

N 1.0462825 -0.35094693 -0.18112427
C 0.3931158 -1.2002786 0.691862
O -0.9088463 -0.8136795 0.7653549
C 0.25763914 0.8355491 -0.42838538
C -1.1381618 0.27085614 -0.1349053
O 0.8467882 -2.1340175 1.292654
H 2.0502775 -0.31635663 -0.10464982
H -1.6103406 -0.12094006 -1.0410724
H 0.5179324 1.6539453 0.2537006
H 0.35153988 1.1883099 -1.4573846
H -1.8062265 0.9875591 0.34395003
