12

O 0.66163796 -0.27739313 1.6793541
C 0.8873988 -0.85759145 0.42285967
C 0.2728116 0.005873398 -0.6853124
C -1.190581 0.44594646 -0.393503
N 0.28434914 1.3730139 -0.5375425
H 0.44708213 -1.8623844 0.42308122
H -1.809387 0.2881307 -1.2716452
H 0.38759467 -0.4229695 -1.6959127
H -1.1632403 1.5701216 -0.2312534
H 0.7548566 0.67518896 1.5204372
H -1.4953438 0.029898714 0.5639021
H 1.9628212 -0.9678351 0.2055351
