12

O -0.54501677 0.6165725 -1.6951407
C 0.18728596 1.1733555 -0.63102543
C 0.36356616 0.16188589 0.48763815
C -0.7118765 -0.7888432 0.8326829
N 0.4231503 -1.2221371 0.015692186
H -0.2331944 -0.2991206 -1.764849
H -0.363804 2.049025 -0.26998585
H 1.1802777 1.5155363 -0.9633164
H 1.0465018 0.4552718 1.2823358
H -1.6564369 -0.7368514 0.30136156
H -0.7740257 -1.1447968 1.859586
H 1.0835727 -1.7798979 0.545021
