11

N 1.0771679 -1.194729 0.8487161
C 1.1243862 1.0346748 -0.10670022
C 1.6925262 -0.097506285 0.57622486
C -0.7944503 -0.16493736 -0.18474688
C -0.1762082 1.0781761 -0.5533125
N -2.0840166 -0.3637159 -0.45396683
O -0.25256845 -1.2229388 0.4110921
H 2.7242858 -0.10496941 0.9152218
H 1.7894382 1.881062 -0.26936635
H -2.549143 0.38859564 -0.938578
H -2.551418 -1.2337121 -0.24458414
