11

N 0.9657271 0.46230954 -2.141069
C 0.5786313 0.24118297 -0.95712054
C -0.7984611 -0.119569264 -0.6452216
C -1.149113 -0.3401876 0.6267892
C -0.12360194 -0.20676702 1.6421531
N 1.0977073 0.106462084 1.4179399
O 1.4622556 0.335062 0.1014544
H 1.9566652 0.6983153 -2.165884
H -1.4806662 -0.19062294 -1.4830233
H -2.16027 -0.612728 0.9135966
H -0.34887445 -0.37345704 2.6903849
