13

C 0.3310284 0.060274426 -0.15464856
N -0.6407169 -0.26669997 -1.1134675
C -1.6733538 1.0137045 -1.7616243
O 1.006449 1.0557908 -0.19129735
C 1.3374991 -0.65506357 1.8164946
O 0.37374535 -0.89160883 0.78344965
H 1.1246431 0.2903577 2.3213236
H -1.1051521 -1.1574726 -0.98124593
H -2.6070402 0.77080154 -1.2351636
H -0.5340703 0.035294432 -2.1289897
H 2.3446817 -0.6207016 1.3955531
H 1.2352158 -1.4916801 2.5041919
H -1.1929295 1.8570033 -1.2545756
