13

C -0.04563571 0.3636681 0.5607777
N -0.34094408 -0.90470296 1.199326
C -0.26237106 1.4883537 -1.4672898
O -0.6873989 0.42055658 -0.60465086
C 0.59305525 -2.068228 0.6666157
O 0.7112843 1.1574159 1.0415758
H -0.8873816 1.4076279 -2.3549595
H -0.17634377 -0.81214803 2.1982582
H -0.407253 2.4548905 -0.9775539
H 0.4191435 -2.018998 -0.4180463
H 1.5914872 -1.6445144 0.84698653
H -1.2986231 -1.1987243 1.0309564
H 0.7909807 1.3548038 -1.7219961
