10

N 1.5119894 -0.43692097 -0.46971285
C 0.6902317 -0.34766287 0.47229758
O -0.6102009 1.0355192 -0.4751375
C -0.3154552 -0.24263902 -0.89775616
C 0.0030662832 0.9710093 0.8456707
N -0.5704072 -1.183454 0.107255
H -0.745294 0.87006176 1.6277936
H -0.3942125 -0.40453288 -1.969196
H -0.22950993 -2.0914974 -0.21308301
H 0.65979236 1.8301167 0.9718686
