12

N 0.85787237 -1.7415861 0.56416446
C 0.266079 -0.54470515 0.16924825
C 0.9305964 0.39442384 -0.6253529
N 0.34968373 1.5078343 -1.0613333
C -0.9196072 1.6963136 -0.6991229
N -1.6527507 0.8827084 0.056244403
C -1.054993 -0.2273027 0.48447368
H 1.8655659 -1.7337271 0.6091769
H 0.44412288 -2.1793518 1.3749373
H 1.9669305 0.23756908 -0.9200169
H -1.4007628 2.6025655 -1.0557162
H -1.6527367 -0.8947417 1.1032975
