12

N 0.55231455 -1.33262419 -0.27601029
C -0.43793766 -1.92825511 0.29599205
C 1.44389523 1.04668272 0.22956552
N 0.59862616 1.03942673 -1.03858634
C 0.32427981 0.03515497 0.02206162
N -1.39133661 -1.11824050 0.94999403
C -0.96723909 0.08479779 0.71136896
H 1.02991001 1.86873440 0.83832457
H -0.56809869 -3.00468907 0.28858768
H 1.05434631 0.65861547 -1.85904203
H -0.16050178 1.68293691 -1.24949264
H -1.47825787 0.96746005 1.08723716
