9

O 1.2580137 -1.1859641 0.3778772
C 0.4598789 -0.17270938 0.046043202
N -0.12793963 0.55669564 0.98625404
N -1.3595027 0.8445557 0.8963759
N -1.0260959 -0.07725426 -1.5844812
C 0.2005628 -0.013841728 -1.4277886
H -1.4851894 1.6210909 1.5643121
H 1.0376967 -1.5019469 1.269061
H 1.0425756 -0.07062568 -2.1276538
