9

O -1.48466879 -0.56601350 0.82735563
C -0.26374039 -0.16281679 0.35627589
N -0.42951318 0.66631639 -0.81599201
N 0.62753173 0.85349069 -1.44032366
N 0.79373774 0.22080636 1.32566938
C 0.91578739 -0.88105231 0.70735317
H -2.12804825 0.11611175 0.58812686
H 1.58374377 -1.72798658 0.67235266
H 0.38516987 1.48114390 -2.22081784
