9

O 0.34429118 -0.72655404 1.6008475
C 1.3695158 -0.04557984 -0.48746008
N 1.145391 1.0552425 0.103523694
N -1.1373732 0.02603277 -0.0025443835
N -1.2856125 0.3534811 -1.1912289
C 0.24839279 -0.09281893 0.39075115
H -0.46666744 -0.5363847 2.0934367
H -2.3025005 0.43975943 -1.3338958
H 2.0845633 -0.47317836 -1.1734302
