12

C 0.45832878 0.7927511 1.1731591
N 1.1944529 0.9925491 2.11066
C -0.36200613 -0.27664116 0.59683377
N -0.0077836616 1.567657 -0.08679565
C 0.15690477 -1.2639652 -0.37113744
O -0.800998 -1.6285465 -1.3327981
H 0.37680474 -2.1603816 0.22940323
H 0.7641134 1.8731734 -0.68759346
H -1.3711052 -0.45706087 0.97153836
H -0.92520076 -0.8827424 -1.9281207
H -0.58782566 2.3704367 0.13809961
H 1.1043148 -0.9272292 -0.81324905
