11

O 1.1986701 -1.3370035 -0.28611413
C 0.32967243 -1.0062792 0.75599813
C -1.3408899 0.9909501 0.19188656
C 0.87818366 -0.08756116 -0.95283693
O -1.8792958 1.3676189 -0.8235959
C -0.052669298 0.28710568 0.19234678
O 0.7196487 0.16594154 1.3997506
H 1.7555068 0.54541355 -1.1033647
H -0.1658101 -1.7884166 1.3191298
H 0.34426528 -0.26947418 -1.8881956
H -1.7872818 1.1317049 1.1949956
