9

O 1.2332916 -0.0009820663 0.6064763
C 0.5376706 1.1135802 0.20195544
N -0.6568522 -0.64577186 -0.2833068
O 0.8298707 -2.248482 0.52968395
C -0.62446576 0.7495883 -0.34715405
C 0.48989135 -1.1202211 0.30313292
H -1.4240465 1.3354366 -0.77145505
H 1.0008539 2.0706291 0.37419042
H -1.3862133 -1.2537771 -0.6135232
