9

O 0.63599062 -0.36251248 1.16315226
C 0.10749646 0.79504636 -0.65475329
N -0.71145874 -0.33286166 -0.55836233
O -0.86150087 -2.07842099 0.98127681
C -0.39044781 -1.05738512 0.56237499
C 0.91723014 0.75042164 0.40680794
H -1.43482148 -0.61658283 -1.19627258
H 1.70687432 1.39444182 0.75587287
H 0.03063733 1.50785327 -1.46009664
