9

O 0.03904095 1.29339771 -1.81658009
C 0.02660843 0.49622556 -0.73147876
N 0.42232680 -0.75798875 -0.83444080
O 0.32673443 -1.35534502 0.34424731
C -0.40013085 0.90996698 0.56929297
C -0.19303408 -0.34979211 1.26930802
H -1.12641095 -0.75145351 1.68072032
H 0.53485625 -0.26370800 2.08293833
H 0.37000862 0.77869718 -2.56400706
