9

O -1.2535746 0.036922652 -1.616397
C -0.5110343 -0.13032675 -0.5141113
N -0.6760831 -1.1481816 0.2849252
O 0.25682113 -0.9794431 1.2935604
C 0.9481448 0.14112379 1.0567186
C 0.525634 0.7461619 -0.075791255
H -1.8744122 -0.7049632 -1.6707966
H 1.7128583 0.38196307 1.7807267
H 0.87164557 1.6567433 -0.5388345
