12

N -0.74934781 -0.77339876 1.37110669
C -0.01409285 -0.23235381 0.31200847
C -0.84637786 0.62072772 -0.65965182
N 0.07505110 1.53198962 -1.42355573
C 1.07156684 0.81682083 -1.51630595
N 1.80104550 -0.13914247 -1.27694142
C 1.26824877 -0.51671541 0.05275551
H -1.32765960 -0.11098174 1.86314485
H -0.20928871 -1.33829098 2.00768776
H -1.52571739 1.27363530 -0.10107414
H -1.46250228 -0.01805674 -1.30905923
H 1.91907445 -1.11423357 0.67988496
