12

N -0.98874587 -0.6661365 -1.6489073
C -1.2040379 0.54459804 -1.264095
C 0.5386003 1.1500769 -0.2926669
N -0.3640519 1.6229143 -1.1459386
C -0.8993961 -0.6996112 -0.121582165
N 1.1627295 -0.67252684 1.2580223
C 0.37409776 -0.16232389 0.23301584
H 1.3133454 1.8233236 0.072438195
H 2.0802822 -0.2553344 1.328
H -1.4782335 -1.447291 0.41283563
H 1.2098031 -1.6787616 1.2912265
H -1.744393 0.4410726 -0.12234839
