12

N -0.45566094 -0.454487 1.9163198
C -0.13794886 -0.13384242 0.600115
C -0.92600846 0.7226407 -0.17637725
N -0.59579766 1.0826299 -1.4095539
C 0.54028887 0.58097863 -1.8930097
N 1.3653879 -0.24596402 -1.2567322
C 1.0203843 -0.5968663 -0.021766739
H -1.4324759 -0.38259175 2.158424
H -0.03853243 -1.3055654 2.263515
H -1.8546005 1.1315053 0.22144544
H 0.81844413 0.87548405 -2.9020648
H 1.6965197 -1.2739217 0.49968532
