12

N -0.2719911 -0.010644243 -2.0504599
C -0.15958029 -0.039294403 -0.65340376
C -1.0315542 -0.31425163 0.33272463
N -0.3547927 -0.10161546 1.5501107
C 0.93386745 0.33363298 1.3332726
O 1.7760217 0.661296 2.1480505
N 1.0507035 0.312385 -0.05389623
H 0.29145092 -0.7255335 -2.4973013
H -1.2334242 -0.12123504 -2.3427012
H -2.0490448 -0.66974896 0.29123026
H -0.76715314 -0.0908951 2.4665823
H 1.8154968 0.7659043 -0.52420884
