12

N -1.2043272 -1.6213167 -0.6550349
C 0.27290222 1.1907331 0.8265849
C -0.34432092 -0.6017223 -0.26642042
N 1.3702227 0.74907345 0.19969745
C 0.98336774 -0.41457593 -0.52368265
O -0.06859579 2.1489205 1.6116773
N -0.77196145 0.41704792 0.56964344
H -0.876076 -2.1193223 -1.4701658
H 1.6871864 -0.97719914 -1.1158518
H -1.1810375 1.3619076 1.3759841
H 2.2853737 1.1628036 0.23869373
H -2.1527338 -1.29635 -0.79112536
