12

N -0.1726715 1.772098 -0.8263109
C 1.0732423 -0.38263926 -0.10066556
C -0.8533173 -1.5694587 0.33654115
N -0.17397068 -0.9015622 -0.74631643
C 0.29982352 -0.009705464 1.1479992
N -0.6146988 -1.0890796 1.4868447
C -0.00033813465 0.5285284 -0.2394736
H -1.5195934 -2.4003725 0.12589428
H 0.69851524 0.62752527 1.9300548
H 0.3193343 1.869194 -1.7062447
H -1.1492026 2.0187488 -0.94574815
H 2.0928771 -0.4632766 -0.4625747
