12

N 0.8602284 -1.7364986 0.5662663
C 0.26835772 -0.5479128 0.16836214
C 0.9291168 0.39462996 -0.6268212
N 0.3448529 1.5073863 -1.0615485
C -0.92150176 1.6962748 -0.69815344
N -1.6521729 0.88149226 0.05795324
C -1.0535845 -0.22773178 0.48376217
H 1.8673913 -1.7356576 0.60771286
H 0.44563094 -2.175185 1.3759499
H 1.9667245 0.23842332 -0.923516
H -1.4042094 2.6021624 -1.0528685
H -1.6508337 -0.8973832 1.1029011
