11

C -0.72825116 -0.17212474 -2.315481
C -0.16009595 -0.123271376 -0.97101873
C 0.3194372 -0.08959192 0.13453265
C 0.9769937 -0.09860296 1.4402771
O 2.0864236 -0.56130576 1.6088096
N 0.24242231 0.47206107 2.440314
H 0.008869441 0.15172593 -3.054535
H -1.6061219 0.47715732 -2.3977277
H -1.0310503 -1.1931 -2.5621824
H 0.6098201 0.4020093 3.3762553
H -0.71844697 0.7350432 2.3007555
