10

C -1.1597959 0.061666474 -0.57108474
C 0.3490109 0.18866861 -0.5104878
O 1.0026509 0.5361865 -1.466253
C 0.9891328 -0.15137985 0.82084286
H -1.5040623 0.17053081 -1.6031944
H -1.4856759 -0.90186715 -0.16516228
H -1.6156038 0.8450692 0.044946436
H 0.9137663 -1.2311584 0.9921446
H 2.0428617 0.13664852 0.81218106
H 0.46771553 0.34563527 1.6460674
