11

O 0.18695898 -1.9082018 1.1317215
C 0.027653983 -0.7649083 0.41507834
C -0.8765463 -0.36804593 -0.53623354
C -0.502134 0.9659032 -0.9074216
C 0.5962718 1.3155535 -0.1772379
N 0.9160113 0.24190572 0.6353766
H -0.5040888 -2.523522 0.86465317
H -1.7012032 -0.94983315 -0.9229305
H -1.0056337 1.582392 -1.6385125
H 1.1825081 2.2204225 -0.15410458
H 1.6802019 0.18833429 1.2896115
