11

C 0.5952838 0.7333011 2.243722
C 0.30666444 0.1678664 0.9272153
C 0.07615087 -0.3142603 -0.15145302
C -0.14466251 -0.9691819 -1.4409323
O 0.32481182 -2.054807 -1.7142075
N -0.9319353 -0.25996134 -2.2990198
H 0.45973128 -0.02296796 3.0208526
H -0.064251766 1.5773048 2.4625783
H 1.6300521 1.0828726 2.2837472
H -1.0367242 -0.6248128 -3.2333705
H -1.2151207 0.6846464 -2.0991318
