11

C -0.33040768 -0.015191813 1.294982
C -0.49023864 0.20989996 2.7334006
C -0.18605132 -0.18616438 0.118859775
C 0.7399675 0.36481154 -1.9073789
O -0.09687633 -0.4597651 -1.1709265
N 0.6638581 -0.12251019 -3.1419256
H 0.0909299 -0.92652833 -3.3932378
H 0.4850359 0.35554606 3.209153
H -1.0986706 1.1027215 2.9161212
H -0.98205817 -0.6450669 3.2080643
H 1.2045114 0.3222478 -3.8671122
