12

O -0.6587016 2.3411968 0.79601455
C -0.5845902 0.28780013 -0.40792143
C 0.14579363 -1.6409353 -0.52404374
N -0.99099946 -1.0456548 -0.47020966
N 1.1682403 -0.6915547 -0.54685336
C -1.1137416 1.1080976 0.5730127
N 0.68703604 0.5203566 -0.82368827
H -2.0522692 0.87116396 1.0622258
H 0.17552428 2.4368527 0.31699008
H 0.7294447 -0.59992915 1.3215252
H 2.1406524 -0.8838678 -0.76664245
H 0.35361058 -2.7035258 -0.53040934
