10

O -1.62790298 -0.85457213 1.16161453
C 1.29131748 0.31499939 -0.28981800
C -0.81661612 0.37252441 -0.81106957
N 0.30813193 0.76758133 -1.26914925
C -0.61010827 -0.33939324 0.46591738
N 0.62423138 -0.38384935 0.78824643
H 1.84183571 1.18066587 0.09207828
H -1.76842310 0.54525560 -1.30487008
H -1.25660304 -1.26487003 1.95831677
H 2.01413700 -0.33834180 -0.79126643
