10

O 0.21261336 2.209738 0.396542
C 0.118333906 0.88317823 0.1645939
C -1.0022042 0.19420964 -0.21510506
N -0.5690705 -1.1175026 -0.31495145
C 0.74499303 -1.1394781 0.00096958556
N 1.1950573 0.06029953 0.29743698
H 1.1267267 2.375062 0.65691286
H -2.0190027 0.49076506 -0.41434348
H -1.1355869 -1.9075263 -0.57456285
H 1.32814 -2.0487454 0.0025075797
