10

O -0.1987716 1.8074403 1.143023
C 0.07173993 0.9199386 0.09939912
C 0.45046303 -1.164562 -1.6158506
O -0.009431664 -1.5318617 -0.44102323
C -0.23126607 -0.4979411 0.5044833
O -0.65478367 -0.82531494 1.5706898
H -0.56457376 1.2987953 1.8804066
H 0.530503 -2.144677 -2.1372283
H -0.5206181 1.1591362 -0.79692954
H 1.126739 0.97904617 -0.2069705
