10

O -1.49683071 1.26075808 0.88478195
C -0.50775716 0.77640769 0.02622224
C 1.43317962 -0.56251203 -1.34151820
O 0.99932415 -1.20927863 -0.28317330
C -0.01331176 -0.57164299 0.47851837
O -0.41528416 -1.15742274 1.43696366
H 2.19882226 -1.26923331 -1.73292963
H 0.34816641 1.46603843 -0.02050432
H -0.88036606 0.68149147 -1.00511772
H -1.66594245 0.58539397 1.55675671
