11

N 1.5436215 -0.34871203 0.5275552
C 0.24002366 -0.94123185 -0.035627916
N 1.0867264 1.2388414 -1.3187432
N -1.405471 0.37605602 1.1054913
C 0.97712773 0.22180569 -0.4438533
C -0.99546194 -0.7812786 0.7758257
H -2.240734 0.30736554 1.6833899
H 0.22087528 1.5483729 -1.7321227
H 0.34224886 -1.883457 -0.5730121
H 1.726279 1.9767267 -1.0567453
H -1.4952353 -1.714489 1.0678425
