10

O -1.7819877 0.16971143 1.1970332
C -0.25553665 0.53115255 -0.5644954
C -1.0747782 0.93753636 0.5415901
C 1.1187627 0.063904054 -0.31324446
N 0.027172469 -0.94112223 -0.39801273
H -0.3314678 -1.3380716 0.46792817
H -0.031199839 -1.5364611 -1.211771
H 1.5840704 0.07114624 0.67474645
H -1.0855128 2.0264268 0.7439393
H 1.8304774 0.015777498 -1.1377138
