11

C -0.43779612 -1.3806429 -0.5696068
C -0.5150654 0.014649079 0.036566123
C 0.8408234 0.64527017 0.22719976
O 1.8965613 0.14374995 -0.054861795
C 0.8126402 2.0111263 0.8210193
N 0.77998424 3.0688312 1.2809712
H 0.046711896 -1.3576568 -1.5502683
H -1.4439015 -1.79133 -0.68909454
H 0.13943824 -2.056084 0.068640225
H -1.011754 0.0051655266 1.0157971
H -1.1076419 0.69692165 -0.58636224
