11

C 0.20039877 -1.3480233 -0.27258515
C -0.085203975 1.1625049 0.40600064
C 0.5344736 -0.16102153 0.58848107
O 1.2454808 0.9092759 -0.018438123
C -1.0700113 1.3854408 -0.6425112
N -1.8722992 1.5614418 -1.4552379
H 0.8770412 -0.38626572 1.599881
H 1.0906409 -1.9638127 -0.42445064
H -0.17313607 -1.0321909 -1.2508292
H -0.5636005 -1.9632317 0.21394561
H -0.18378443 1.8358824 1.2557437
