9

O -0.24474166 -1.2146813 1.7570359
C -0.18907207 0.12696387 1.3358091
C 0.11728886 0.26314762 -0.10031041
C 0.33942366 0.33162606 -1.2813847
C 0.5985271 0.41493565 -2.6386836
N 0.81274 0.48173445 -3.7790527
H -0.9180539 -1.67498 1.2399285
H 0.6046063 0.6012269 1.9187344
H -1.1207182 0.6700269 1.5479236
