9

O -0.69069981 -0.06912548 2.01961208
C 0.92671813 1.91573626 -3.22193876
C 0.28265789 0.51993906 -1.24198559
C -0.02332788 -0.14400963 -0.29011816
C -0.36937211 -0.89641217 0.92568827
N 0.62080249 1.25403804 -2.29328922
H -1.25966628 -1.50428036 0.74026043
H 0.05868715 0.51140763 2.19929873
H 0.45420052 -1.58729320 1.16247231
