9

O 1.51331912 0.62421240 -2.24457468
C -0.01635605 -0.20325769 -0.84511606
N 0.91766210 -0.45296899 -1.59793066
N -0.13724399 -0.40073395 1.95566942
C -1.06713095 0.03979659 1.21476929
N -1.04400829 -0.08352156 -0.18585076
H 2.19300755 0.19138087 -2.77733715
H -0.36497788 -0.22900016 2.92944092
H -1.99427150 0.51409244 1.55092997
