9

O 0.75580186 0.24714334 -2.0765781
C 0.26524574 0.10820548 -0.8358078
N 0.9897398 -0.31579724 0.17823514
N 0.0781751 -0.2826957 1.1812826
C -1.1060481 0.14759879 0.7197422
N -1.0287293 0.40859 -0.56856525
H 1.6858938 -0.012197608 -2.0532355
H 0.34410092 -0.5563534 2.112233
H -1.9841797 0.25550628 1.342694
