11

N 1.1922245 0.8045313 -1.820858
C -1.3308569 -0.93026626 1.9648446
C -0.051565077 0.50262207 0.20457318
C -0.6947103 -0.22546595 1.0787686
C 0.48969558 -0.08962644 -1.0556841
O 0.3154783 -1.2429897 -1.3964508
H 0.08701645 1.5676738 0.38661245
H 1.5107473 1.6774706 -1.4348607
H -2.4090788 -1.0582032 1.9117018
H 1.689426 0.42251018 -2.6102037
H -0.79837716 -1.4282564 2.7715566
