11

N -0.67661434 -0.5491818 1.7588389
C -0.25272024 -0.11911961 0.5308036
C -0.18898715 1.1145856 -0.05421386
C 0.34958106 0.9665249 -1.3930106
C 0.67955744 -0.3927343 -1.4148802
O 0.2802217 -1.074683 -0.26277435
H -0.94770056 -1.5194101 1.7991402
H 1.6096919 0.4977838 -1.3664789
H -1.2992306 0.077441 2.2434187
H -0.51841533 2.043301 0.39331287
H 0.9646159 -1.0445074 -2.2341561
