10

O -1.2483909 -1.3147179 0.1075549
C -0.4355757 -0.36299226 -0.26580665
C 0.8426682 -0.7071749 -0.9249449
N -0.86741227 0.965343 -0.25439996
N 0.9727155 0.30509648 0.98026043
C 0.03690692 1.261355 0.6572145
N 1.7288711 -0.22316529 -0.1444045
H -2.0396347 -0.91450095 0.50293565
H 1.015934 -1.2060986 -1.872584
H -0.006082189 2.1968555 1.2141743
