10

O 0.35384792 1.057861 -1.7756089
C 0.4945255 0.6159341 0.49930996
N -0.7115692 -1.3431038 0.5408071
C 0.059177145 -0.5549811 1.2377727
C -0.10761729 0.37511674 -0.7814877
N -0.82980186 -0.7414723 -0.7137647
H 0.26327965 -0.8079463 2.269897
H -1.1810963 -1.2826997 -1.4893602
H 1.1905482 1.0711266 -0.72631085
H 0.46870607 1.6101648 0.9387456
