10

O 0.27132428 -1.0625817 -1.7230023
C -0.58273435 0.7232443 -0.2074394
N 0.75835925 -0.82798094 0.5633042
C 0.52499604 -0.06101345 1.6808788
C 0.11021754 -0.37908027 -0.56684464
N -0.30257323 0.8770831 1.1562921
H 1.3485168 -1.6451379 0.5706926
H -0.23052318 -0.62995243 -2.4227288
H -1.2209927 1.3847784 -0.77337146
H -0.6765904 1.6206408 1.7222189
