11

C -1.27772999 -0.60231196 -1.73106923
O 0.17985288 -0.86664674 0.06544709
C -0.16867110 -0.23339176 -1.10898084
C 0.80554609 0.57025227 1.69526052
O 1.30466768 -0.22008602 0.62437388
H -1.92851992 -1.36939115 -1.32295375
H 0.11658797 1.33919442 1.32068951
H -1.54008654 -0.12864395 -2.66962067
H 0.53178122 0.52678235 -1.44611365
H 0.29066327 -0.05555024 2.43349046
H 1.68590816 1.03979285 2.13947689
