11

C -1.2592844 -1.5638593 -0.9800619
O 0.2423164 -0.6537131 0.5492257
C 0.7900782 1.4940894 0.99572766
C -0.16948655 -0.8471212 -0.75260895
O 1.3269799 0.25126013 0.562522
H 1.6417311 2.176832 1.032927
H 0.4693489 -0.3962033 -1.5080684
H -1.8469497 -1.976338 -0.16580944
H 0.04200095 1.86291 0.28117147
H -1.5699403 -1.7438409 -2.0023978
H 0.33320528 1.3959843 1.9873723
