11

N -0.9782933 -1.7066138 0.5975782
C -0.34669098 -0.53921074 0.15404417
C 0.96698856 -0.16129304 0.26807803
N 1.0398037 1.052426 -0.40148842
C -0.19520593 1.3244762 -0.87667775
N -1.059539 0.39013034 -0.5566298
H -1.9820322 -1.6039848 0.51645046
H -0.7265818 -1.9727122 1.5389872
H 1.8318131 -0.61673635 0.7244415
H 1.8641629 1.6176568 -0.5170748
H -0.41442513 2.2158613 -1.4477087
