11

C -1.80071636 0.55508250 -0.82730069
C 0.95368138 0.82325891 1.39451237
C -0.57151924 0.17368391 -0.26852405
O -0.13309902 0.95005191 0.72156499
C 0.24313835 -0.99965776 -0.67522788
N -2.81256601 0.81472785 -1.33772710
H 1.23271140 -0.69519963 -1.04839161
H 1.08896893 1.58156645 2.15617653
H -0.26852485 -1.54528989 -1.47069139
H 0.41009820 -1.68804597 0.16839286
H 1.65782721 0.02982162 1.18721538
