13

C -0.58946555 -1.50688551 -0.44221366
C -0.80755332 0.73510712 0.34550577
O -1.28386886 -0.37538651 -0.44430575
C 0.50454109 1.36022838 -0.12008192
O 1.64609880 0.87199525 0.52525969
N 0.54511704 -1.65633107 0.10611303
H 1.58711155 -0.10079745 0.48077772
H -1.14615915 -2.27991470 -0.97711568
H 0.87503204 -2.61006951 -0.00416193
H 0.55951335 1.26394371 -1.21740699
H -1.62375775 1.45593846 0.25323853
H -0.71501606 0.41132392 1.38682475
H 0.44840670 2.43084765 0.10756629
