13

C 0.19950336 -1.5199566 -0.5997744
C -0.20491032 -0.054845802 -0.58355004
O -1.5713847 0.13222766 -0.23050363
C 0.7369677 0.7670656 0.3031684
O 1.944813 0.6211429 0.2649435
N 0.096273914 1.651285 1.1119869
H 1.2488725 -1.6146601 -0.88693
H -0.42744488 -2.075633 -1.3043114
H 0.08390315 -1.9657695 0.39703083
H -0.113397226 0.35968274 -1.5934318
H -1.7595532 -0.43634015 0.5289247
H -0.88843375 1.8156583 0.9728342
H 0.65479034 2.3201427 1.6196126
