13

C -0.25810584 -1.505203 0.6938816
C 0.06776957 1.0474336 -1.0087085
O -1.2055849 -0.6420902 0.3477457
C -0.8517747 0.7463015 0.1715025
O 1.4285247 1.109542 -0.68858445
N 0.97882247 -1.230147 0.76189893
H 1.5111445 -2.039717 1.0649685
H -0.1507612 0.31930426 -1.8077623
H -0.3987525 1.1135582 1.0975896
H -0.7085532 -2.4762368 0.91249675
H -1.8255118 1.2196157 0.022806643
H 1.6240816 0.30073512 -0.17929798
H -0.21129888 2.036904 -1.3885368
