13

C -0.49492627 0.90350616 -1.0635834
C 0.058380645 -1.5230937 0.9714073
O 0.7548362 0.84480923 -1.6689314
C -0.46696424 0.8825883 0.42066708
O -1.1021308 -1.0500056 1.0550385
N 1.0576732 -0.81470513 0.5285426
H 1.202702 0.099428035 -1.224428
H -0.9434938 1.8801024 -1.3145242
H 0.36610058 1.3965983 0.88237107
H -1.1918075 0.13267669 -1.4257259
H 1.9805057 -1.2175276 0.6404734
H -1.4248801 1.0308169 0.90293056
H 0.2040045 -2.5651941 1.2957622
