9

O -0.74472591 -1.54810218 -1.11420120
C -0.26354313 -0.52581107 -0.37501831
C 0.96369120 0.03306574 -0.50228581
O 1.11585968 1.02867446 0.39647685
C -0.99679083 0.13559192 0.68022643
N -0.11424416 1.01877102 1.06686246
H 1.81119286 -0.14497046 -1.14957263
H -1.63253144 -1.72884457 -0.78046434
H -0.13890830 1.73162485 1.77797651
