9

O -0.7759967 1.47324 -0.2565662
C 0.36898 -0.40086132 -0.1893665
C -1.3524947 0.7051816 0.7043725
O 1.2579975 -1.3861412 -0.37111965
C 0.23257111 0.76809174 -0.8486094
N -0.6493936 -0.47486624 0.75495607
H -0.7746091 0.2580544 1.7584188
H 0.71554893 1.2029111 -1.7091388
H 0.97739667 -2.14561 0.15705307
