11

O -0.95890972 0.82834336 -1.67805844
C 0.08744995 -0.02770400 1.24692223
C -0.42181673 0.71676763 -0.58288229
N -0.85167792 0.99536485 0.73174388
C 0.72921190 -0.01827690 -0.15001482
O 0.60267741 -1.33818231 -1.06254787
H 1.47882060 -1.43188698 -1.46715798
H 0.74086551 0.29265487 2.05981650
H -0.45380739 -0.93650930 1.53466649
H -0.93840609 1.92159245 1.12659508
H -0.01440727 -1.00216354 -1.75908258
