11

O 1.3681535 1.1993835 -0.42365965
C 0.6968859 0.2155607 0.31038406
C -0.79422176 0.52565414 0.5859042
N -1.1128719 -0.7120049 -0.12893422
C 0.16828725 -0.96994704 -0.52408713
O 0.66727245 -1.7703615 -1.2738186
H 1.973074 0.7487091 -1.0266361
H 1.2524102 -0.09604217 1.2049358
H -1.1027555 0.52788 1.6341264
H -1.1258724 1.4336 0.07729271
H -1.9903615 -1.1024317 -0.43550727
