11

O 0.18625884 -1.8992019 -0.0042045834
C -1.0398238 0.49628237 -0.36256966
C 0.1961372 -0.3329136 -0.7453203
N -0.114903644 1.3912039 0.34296918
C 0.90860826 0.48282066 0.28802198
O 1.9271274 0.31827933 0.9192959
H 0.9929104 -1.8346424 0.5397922
H -1.5693917 0.95016456 -1.2037934
H -1.7364693 -0.024655476 0.2996663
H -0.25457367 2.2005334 0.9274564
H 0.5041199 -1.7478709 -1.0013142
