11

N -0.23437363 0.05198055 2.48476510
C 0.31664377 1.30431127 0.47939749
C -0.13010440 0.08852492 1.21791790
C 0.44725140 0.76628517 -0.88542067
C -0.25525663 -0.59499741 -0.96317511
O -0.41328851 -0.97712229 0.40076640
H 1.54847573 0.64080614 -0.92767311
H -0.56103285 -0.86954986 2.77836933
H -1.24429535 -0.51905092 -1.42805027
H 0.20662522 1.47760227 -1.67942098
H 0.31935514 -1.36878995 -1.47747579
