12

O 0.035023056 -0.29349115 -1.9282401
C 0.3341755 -0.08173732 0.47519398
C -0.8011344 -0.94505125 0.8589018
C 0.98546696 -0.20319273 -0.8984725
N -0.82790864 0.82551265 0.4634187
H 1.6672671 0.65113676 -1.0422179
H -0.88849396 -0.9086196 1.9612693
H 1.0485557 0.21182072 1.2505994
H 1.5834225 -1.1214668 -0.9303072
H -0.9366593 1.3348491 1.3365829
H -1.6401267 0.07046019 0.2764405
H -0.559588 0.4597793 -1.823169
