10

C 0.3115807 -0.38515064 0.40486568
O 0.32204917 -0.8314043 1.6094487
C -0.73982203 0.5896498 0.28944978
O -1.2326028 0.8311802 -1.0073577
N 1.1031628 -0.8670933 -0.55105484
H -0.47918516 1.4924825 0.8544309
H 0.932989 -0.5392805 -1.4912585
H -1.0058066 1.7285006 -1.2756275
H 1.5465543 -1.7647957 -0.42445785
H -0.7589196 -0.25408864 1.5915612
