11

N -1.1721284 0.4776771 -1.0854055
C 1.4481387 0.12763001 0.009471784
O 2.3183298 -0.5401208 -0.6881805
C 0.3865901 -0.72491485 0.6530937
C -1.4626565 0.5861404 0.14089191
O -0.7316244 0.020032544 1.1132125
H -1.8412615 0.99208164 -1.650608
H 0.084396556 -1.5072101 -0.052683596
H -2.30314 1.1271638 0.5840412
H 2.4485095 0.61468184 -0.5741887
H 0.8248469 -1.1731614 1.5503552
