11

N 0.09188661 0.1435093 -1.6221302
C 1.2138661 0.20243788 -1.0393327
O -1.9284332 -0.6076668 1.0343959
C 0.094143234 0.37152284 0.9766646
C -0.6664725 -0.9234848 0.7973405
O 1.3375545 0.32041836 0.28696603
H 2.2067194 0.17562759 -1.4989579
H -2.4443643 -1.4254272 0.9782384
H 0.21562122 0.03814372 -2.6250403
H -0.48086876 1.2559059 0.6755317
H 0.3603479 0.4490132 2.0363238
