9

O -2.5763412 0.6732461 0.29205292
C -1.6313082 0.09692281 0.76295763
C -0.30054852 0.04493681 0.09598898
N 0.7657787 -0.5483979 0.5444127
C 1.6604809 -0.27813476 -0.454614
N 1.1831645 0.4243633 -1.4401917
O -0.12998153 0.6466656 -1.0790248
H -1.6599754 -0.4426814 1.7248673
H 2.6887307 -0.6169205 -0.44644883
