9

C -0.22354068 -0.6576445 0.2727969
C 0.6126885 1.8303657 -0.21930541
C 0.1571522 0.47180602 0.049475636
C -0.6416179 -1.9122114 0.79905033
O -0.9093468 -2.725334 -0.21143132
H 0.48477533 2.078693 -1.2762767
H 1.6711398 1.9340402 0.037178934
H -1.1918391 -3.5672681 0.16967122
H 0.040588565 2.5475533 0.37884045
