9

C -0.13845241 -0.30125612 0.67826796
C 0.52448535 0.604963 -1.7364166
C 0.17142761 0.100245945 -0.41812086
C -0.37159887 -0.881668 1.9548488
O -1.3644471 -0.43607628 2.6814559
H -0.3340402 1.0989754 -2.1995735
H 1.3387156 1.3304679 -1.6544313
H -0.676571 -1.3055885 3.08025
H 0.8504811 -0.21006358 -2.3862805
