9

C 0.7772739 0.12078969 -1.6542557
C 0.1516385 0.023691036 -0.3337052
C -0.35189813 -0.04477014 0.7599966
C -0.9740439 -0.15241316 2.065536
O -0.6572568 0.5132776 3.023859
H 0.8133746 1.1628772 -1.9825529
H 0.22131819 -0.4579799 -2.3973508
H 1.8015232 -0.2591946 -1.6149006
H -1.7819296 -0.9062778 2.1333735
