10

O 1.3169006 -0.9149799 0.49259803
C 0.40577525 0.13560598 0.36419252
C 0.007951602 0.4461617 -1.0784758
O -1.3893186 0.18187751 -0.7607082
C -1.0844389 -0.20766272 0.50478905
O -1.8084587 -0.6572611 1.3361373
H 1.3304713 -1.197077 1.4150093
H 0.6847004 1.0221009 0.950424
H 0.39275596 -0.27891687 -1.7984447
H 0.14366104 1.4701515 -1.4255213
