13

C 0.1992457 -1.5211864 -0.5988087
C -0.20544992 -0.056452334 -0.58330584
O -1.5728403 0.1370732 -0.22974172
C 0.73677146 0.7676358 0.30301878
O 1.9428331 0.61859894 0.2637272
N 0.09900352 1.6569749 1.105985
H 1.2489115 -1.6156096 -0.88509583
H -0.42561764 -2.077934 -1.3045592
H 0.082394555 -1.9677076 0.39749724
H -0.11349247 0.36065364 -1.5918027
H -1.7591114 -0.4334736 0.5277204
H -0.88768226 1.8101751 0.9738774
H 0.655034 2.321252 1.6214877
