10

C -1.3142246 0.28938285 0.84950364
C -2.3275073 1.1106788 0.7209845
C 0.9059811 -0.90679574 0.2909063
C -0.109871365 0.004014414 0.0991096
N 1.8118677 -0.77543724 -0.71077996
N 1.4253391 0.16576485 -1.5109893
N 0.2723117 0.64306784 -1.0426435
H 1.0308486 -1.6329373 1.0800084
H -1.5065079 -0.28826225 1.7639697
H -0.18823725 1.3905237 -1.5400692
