10

C -0.9309082 0.37778524 2.3674362
C -0.47350603 0.21225928 1.2667222
C 0.06461624 0.008711149 -0.035290055
C 1.340931 0.11948411 -0.54965323
N 1.3054917 -0.20016797 -1.8676367
N 0.08889961 -0.4999104 -2.2002192
N -0.6678014 -0.3782183 -1.1102334
H -1.327987 0.5266629 3.3481405
H 2.2565758 0.4042268 -0.054086406
H -1.6563121 -0.57083285 -1.1651801
