9

O 0.84808532 -0.02301102 1.09035569
C 0.64539572 -0.44301507 -0.26346049
C -0.43095841 -1.39846596 -0.46677485
O -0.97012632 1.35173344 0.39885959
C 0.29776987 0.91572242 0.19969193
N -1.32176074 -2.11879903 -0.63393643
H -1.56334093 0.60787664 0.58393976
H 1.54984238 -0.63719867 -0.83708909
H 0.94509320 1.74515736 -0.07158605
