9

O -0.259875 -0.5336334 -1.2475392
C 0.70354384 0.121669814 -0.41524926
C -0.15996818 -0.9664335 0.086646765
O -1.2110565 -0.7811682 0.9222449
C 0.37895218 1.4879797 -0.04028406
N 0.09395541 2.5572143 0.30010647
H -1.5614115 0.11864087 0.8381247
H 0.26961982 -1.9538286 0.23185912
H 1.7462399 -0.050440565 -0.6759095
