11

C -0.4110507 0.91825074 -1.1510317
C -0.07232979 -0.3319516 -0.3782138
O -0.05214854 -1.4341606 -0.8820881
C 0.2782372 -0.18678726 1.0926963
O 0.65172654 -1.4054404 1.6496644
H 0.5153932 1.3414286 -1.5570042
H -0.8715789 1.6804512 -0.5134611
H -1.0693476 0.6781878 -1.9882835
H -0.6008353 0.23951173 1.6055491
H 1.0834268 0.55920947 1.1859914
H 0.5485073 -2.0586998 0.93618184
