11

O 2.0441687 0.6641811 0.53775865
C -0.22608863 -0.068185076 0.6309742
C -1.7620474 -0.6056081 -1.2763193
N -1.4376963 -0.48236534 9.979041e-05
C 0.9449284 0.31304845 -0.24164158
O -0.17123011 -0.027492851 1.8354125
H 1.7725372 0.60774446 1.4664873
H -2.1341538 -0.7095659 0.70698905
H 1.1977808 -0.5327596 -0.8998432
H 0.64634615 1.1526862 -0.88877314
H -0.87454534 -0.31168348 -1.8711443
