11

C -0.43831906 -1.3806528 -0.56948173
C -0.5133651 0.014757922 0.03716096
C 0.8415804 0.64551246 0.2264739
O 1.8958234 0.14324409 -0.05826556
C 0.81209034 2.0111268 0.82142836
N 0.77906334 3.06842 1.2809718
H 0.046127103 -1.3583477 -1.5500079
H -1.4451904 -1.7899679 -0.6892478
H 0.13730903 -2.057195 0.068329684
H -1.0083175 0.0059073176 1.017773
H -1.1068014 0.6971948 -0.58513474
