9

O -1.14275255 -1.38393563 -0.16789498
C 0.04858548 0.47294792 -0.10282976
C 0.73724036 -0.61749960 0.50101387
O 0.43311255 1.75916318 -0.26531949
C -1.12522998 -0.07765141 -0.50192868
N 0.02354280 -1.71571991 0.45894789
H -1.99673585 0.30701841 -1.00846840
H 1.30275227 1.89298733 0.12855555
H 1.71948482 -0.63731007 0.95792394
