9

O 1.3465648 0.85553503 -0.89858717
C -0.80148405 -0.25989106 -0.9023218
C 0.3164966 0.21639064 -0.29936466
O -1.5962006 -0.83727807 0.021428088
C 0.12534098 -0.12555611 1.069752
N -1.0121776 -0.7500718 1.2521067
H -1.1552716 -0.26673153 -1.9215683
H 0.7736612 0.059667546 1.9178891
H 2.00307 1.1079353 -0.23933402
