10

C -0.9791913 -0.7090659 0.6174728
C -0.37463295 0.9091064 -0.29137683
N -1.6237527 0.11194965 -0.12832496
C 1.105111 -0.29750866 -0.74039865
N 0.43552998 0.51403004 -1.4757665
C 0.40463227 -0.0900234 0.586293
H 0.9576935 0.12064465 1.5014827
H -1.383906 -1.5978839 1.0997956
H 1.9234 -0.9429328 -1.057484
H -0.46488374 1.9816841 -0.11169305
