10

C -1.19763601 -0.14066908 0.62349248
C 0.54647855 -0.42076830 -1.17570711
N 0.70298123 0.85323046 -1.18727216
C 0.19653738 -0.63000003 0.28292053
N -1.01698555 1.12913483 0.59696537
C 0.41925105 0.89516324 0.27319593
H -2.13469946 -0.65554216 0.83144560
H 0.63425984 -1.09744241 -2.02489432
H 0.70789163 -1.37198959 0.89594440
H 1.14192164 1.43888269 0.88390926
