10

C -1.0825435 0.2452412 -0.25197208
C -0.3192427 -0.5952843 -1.050458
N 0.95077306 -0.88954574 -0.7651547
C 1.4438632 -0.32636052 0.335727
N 0.81149304 0.4911543 1.1752119
C -0.45510834 0.77130073 0.86980283
H -2.114044 0.47809863 -0.49221092
H -0.73241115 -1.0518146 -1.9477496
H 2.4790397 -0.56082684 0.57727486
H -0.981819 1.4380368 1.5495287
