10

C 0.26779252 -0.8086464 0.86783814
C -0.44470668 0.3073776 -1.0172056
N 0.14017837 0.26818165 1.8644551
N 0.85859805 0.49706367 0.76788384
C -0.6887863 -0.8064608 -0.23551364
C 0.5283521 1.1209544 -0.3907663
H -0.9746371 0.5737302 -1.9250183
H 0.8708673 -1.6783142 1.1246661
H -1.3700582 -1.6172926 -0.46854657
H 0.8123999 2.1434066 -0.58779293
