10

C -0.87728491 -0.07077619 -0.95590526
C -0.19194313 1.05043080 -0.43209391
N -0.45158409 -1.14467044 -0.24435615
N 0.74383635 -1.72637897 -0.18462770
C 0.37438446 -0.76489996 0.86806066
C 0.63678585 0.64598297 0.59789803
H -1.43198300 -0.18056891 -1.87523476
H -0.24932074 2.05184624 -0.84412397
H 0.17772081 -1.14785564 1.86838572
H 1.26938830 1.28689000 1.20199760
