10

O -0.64423394 1.2099584 1.268514
C 0.006637502 -0.8794931 -1.1109403
C -0.34783164 -1.1236926 0.14847763
C -0.022690881 0.3284155 0.44643483
N 0.22181894 0.5748812 -0.96436656
N 1.337532 0.5975406 0.08006505
H 0.18488315 -1.4395428 -2.02021
H -1.5980823 1.1152245 1.1740885
H 1.476602 1.5999229 0.23425141
H -0.6146349 -1.9832143 0.7436855
