11

C 0.8928154 1.4579424 -0.41333815
C 0.74057674 1.1372972 0.88737243
N -0.07305703 0.00753992 0.89717525
C -0.30909204 -0.35380846 -0.33999148
C -1.0427059 -1.598499 -0.35761848
O 0.23368609 0.5362809 -1.1946944
H -1.8592967 -1.6769626 -1.0737063
H -0.35051665 -2.4415689 -0.45041183
H -0.70589143 -0.9680416 1.2022094
H 1.0924277 1.633286 1.7781012
H 1.3810538 2.2665348 -0.9350977
