11

C 0.5095188 -0.96418375 1.4994953
C 0.1627355 -0.12538996 0.31947237
N 0.63511425 1.0330923 -0.007682514
C -0.031123677 1.3586183 -1.1805404
C -0.8787654 0.3614816 -1.4991447
O -0.7643307 -0.6043495 -0.54114014
H -0.38355598 -1.197443 2.0881362
H 1.2164856 -0.41767055 2.125433
H 0.96457267 -1.9106486 1.19202
H 0.15218191 2.2878973 -1.7007893
H -1.582833 0.17859577 -2.2952597
