11

C 0.82895940 1.18838744 0.83762396
C -0.18452406 -0.64826642 0.09581141
N -0.09429512 0.28121327 -0.94218857
C 0.47731062 1.45429240 -0.41699741
C -0.74073595 -1.85897215 0.11189279
O 0.45565091 -0.09470124 1.17827826
H -0.72386465 -2.45153885 1.01638373
H 1.34823961 1.75396877 1.59344587
H -1.20334835 -2.26014531 -0.78079020
H 0.62231943 2.33822425 -1.01839495
H -0.78571186 0.29753775 -1.67506477
