11

N 0.9295908 1.1107076 0.0038835593
C -0.7781962 -0.014975525 0.36371887
N 0.08349056 -0.89727724 -0.23214662
N -2.0176759 -0.41837695 0.8019042
C 1.1306664 -0.13651465 -0.43339902
N -0.3335873 1.2124943 0.5277575
O 2.286403 -0.4844266 -1.000066
H -2.3960052 -1.1921786 0.27945393
H 2.2117796 -1.4223008 -1.2279158
H 1.5507455 1.9019703 -0.020483777
H -2.6672113 0.340878 0.9372929
