11

N -1.2072899 -1.9136631 -1.1799273
C -0.30940685 -1.0719646 -1.3357298
C 0.42207637 -0.03208554 -0.8848682
C -0.04890578 0.3037545 0.45907333
N -1.0148962 -0.37787086 0.9599188
N 0.5853014 1.3837209 1.0571023
H -0.34461254 -1.720904 -2.3234284
H 1.5225234 1.5720466 0.7368067
H -1.2832288 -0.0684217 1.8882128
H 0.48362443 1.4469683 2.059517
H 1.1948141 0.47841963 -1.4366776
