11

C 1.5018775 -0.55110013 -1.6584449
C -0.6048612 0.17082986 1.1864722
C 0.6312591 -0.81033456 -0.6663867
C 0.5804786 0.19748133 0.34985667
O -0.5717395 -0.75334454 1.9859649
N -1.587133 1.1107422 1.120491
H -2.2008407 1.1752533 1.9203876
H 1.5090991 -1.1084701 -2.5901294
H -0.06018411 -1.6554695 -0.71040195
H 2.2083876 0.26756898 -1.5411553
H -1.4063438 1.956843 0.6033459
