11

C -0.7319529 -0.1727875 -2.31567
C -0.16531783 -0.122160636 -0.9674288
C 0.31914887 -0.08932581 0.13419636
C 0.9778279 -0.09706776 1.4388846
O 2.0867338 -0.5612589 1.6105326
N 0.24592017 0.4739841 2.4386768
H 0.008927926 0.15129009 -3.0527225
H -1.6078504 0.4748408 -2.4021611
H -1.0311055 -1.1943204 -2.5628526
H 0.6140859 0.40156162 3.3742228
H -0.7164182 0.7352445 2.3043206
