10

O -0.59047043 -1.5873803 -0.86984086
C -0.10445484 -0.4796147 -0.2410285
C 2.3147123 0.045718037 0.06575542
N -0.80697435 1.4718825 0.94534326
C -1.1206939 0.36634913 0.39434743
N 1.1269062 -0.18696195 -0.211716
H -2.1266508 -0.0640886 0.3435866
H 2.7996793 0.70002097 -0.67433035
H 0.14381698 -2.1662936 -1.1061101
H -1.6358705 1.9003688 1.353993
