10

O 0.21136984 2.2087803 0.3954583
C 0.1189084 0.88293695 0.16326468
C -1.0015653 0.19435224 -0.21464384
N -0.568911 -1.1174777 -0.31356496
C 0.74400616 -1.139921 0.00029402683
N 1.1946341 0.059618317 0.29476956
H 1.1265054 2.3772626 0.6538393
H -2.018324 0.49004146 -0.41234055
H -1.1363502 -1.9074304 -0.56975156
H 1.3297265 -2.0481627 0.0026750956
