10

O 0.025938889 -1.6066505 1.7067524
C 0.7518519 -1.0806937 -0.65313023
C -0.31684127 1.1349605 -0.24067223
N 0.76053345 0.26035526 0.09441039
C 0.40137833 -1.0679685 0.56789625
N -0.8825675 1.0872988 -1.3663294
H 0.27329892 -1.0123739 2.4282246
H -0.4973288 1.879968 0.54406524
H 1.0204884 -1.4590695 -1.6196096
H -1.5367523 1.8641732 -1.4616073
