10

O -0.20600349 -0.58811991 2.25979641
C -0.15813839 0.91039768 -0.76981508
C 0.24828926 -0.70560626 1.03181373
N -0.71586121 0.39682916 -1.77709582
C 0.60380002 -1.33980798 -0.00996340
N 0.78799939 0.18425440 0.01471676
H -0.24243061 1.95474607 -0.44476727
H -1.25793545 1.10352357 -2.27439653
H 0.11368398 0.24542936 2.63110399
H 0.82659640 -2.16164603 -0.66139274
