10

C 0.98721117 -0.0142458035 -0.67003626
O 1.4761717 -0.64766747 0.48050505
C -0.26543874 0.48064902 -0.74484676
O -0.97903085 1.0903525 -1.508181
N -1.0309758 0.16053484 0.7201204
H -1.8868595 -0.35406804 0.525171
H -0.37617886 -0.36148712 1.3107802
H 1.6709405 -1.5642848 0.23879145
H -1.2749424 1.0563369 1.1381027
H 1.6791029 0.15387997 -1.4904065
