10

C 0.17114191 0.23761988 -0.87779566
O -0.00943133 0.66881003 -1.99363595
C 1.10553613 -0.41935852 -0.16020516
O 0.94413726 -0.70003421 1.20332786
N -1.11762225 0.57929667 0.15030587
H -0.90212864 0.18078821 1.06948946
H -1.20933426 1.59226071 0.19702832
H 2.05715901 -0.66841426 -0.62104449
H -1.96363292 0.19232042 -0.26185141
H 0.92417509 -1.66328832 1.29438115
