11

O 0.41551682 -0.89252704 -2.4706147
N 0.8034211 -0.6776107 -1.3458083
C -0.30200577 -0.74829197 0.89465797
C -0.24045604 -0.08050214 -0.48824966
O 0.19035847 0.427201 1.5510039
C 0.2860154 1.1275756 0.3036784
H 1.3185936 1.4090977 0.0730403
H -0.35991412 2.012997 0.27446678
H -1.1750352 0.03671129 -1.0424736
H -1.3105718 -1.0138947 1.2309432
H 0.3740776 -1.6007563 1.0193554
