11

O 1.0589882 -0.04932842 -2.1825943
N 1.3787359 -0.13825975 -0.9526022
C 0.26922566 0.5436827 1.2111557
C 0.27809727 0.345009 -0.28645048
O -0.7737969 -0.43478054 1.3849868
C -0.8871645 -0.65013665 -0.019426793
H -0.6738957 -1.6842432 -0.3206954
H -0.058619168 1.5314732 1.5536867
H 1.2010077 0.26234305 1.714015
H -1.8674111 -0.3393055 -0.39645457
H 0.07483253 0.6135462 -1.7056204
