11

O -1.2747583 -0.17996036 1.9334612
N -1.1692743 -0.76632524 0.6733416
C -0.23718047 -0.23208076 0.008957221
C 0.29685467 -0.4666642 -1.3777189
O 1.2566901 0.5885528 -1.1740859
C 0.79273695 0.8580455 0.16280203
H -2.0076911 -0.66680175 2.328681
H -0.39435536 -0.24813321 -2.1995711
H 0.7752126 -1.4378346 -1.5462112
H 1.5662065 0.6776554 0.9183484
H 0.3955587 1.8735464 0.2719954
