17

C -0.8865858 1.3974564 1.8005412
N 0.6506181 -0.59554803 1.0476041
C 1.4653581 -1.7268696 0.6591829
O -0.8370884 1.0213999 0.42851782
N -0.12545261 -0.3566498 -1.1928948
C -0.68541974 0.5454765 -2.1798613
C -0.041082483 -0.019786987 0.1424136
H 0.8761068 -2.5545382 0.23477744
H -1.5696133 2.2494314 1.836547
H 2.251196 -1.4612947 -0.06843891
H -0.06862459 1.4384934 -2.3429372
H -1.2628647 0.57750547 2.4179792
H 0.10363175 1.6817995 2.1649826
H 0.6201879 -0.95234275 -1.5089678
H -0.7801505 0.00058543414 -3.1222374
H 1.9706001 -2.1110427 1.5494095
H -1.6808168 0.8659248 -1.8666182
