17

C -1.5309838 2.2393594 0.14035062
N -0.6663394 1.1781166 -0.33914495
C -0.11061828 0.317203 0.592271
O -0.22216924 0.524215 1.7929653
N 0.6023083 -0.74068576 0.08063145
C 1.0428035 -1.7872213 0.98091483
C 0.83389014 -0.93940204 -1.3366237
H -2.467801 1.8650689 0.5741475
H -1.008215 2.806623 0.91358685
H -1.7609897 2.9078524 -0.69205594
H -0.9302842 0.77554685 -1.225857
H 0.5241131 -2.7337275 0.7744211
H 0.8248679 -1.4764626 2.0015783
H 2.1217787 -1.9571702 0.8759346
H 0.9953684 0.024238655 -1.830024
H 1.7425462 -1.5358117 -1.4663949
H 0.0097235795 -1.4677426 -1.8367015
