10

C -0.8968655 0.7325604 -0.48074615
O -0.94280577 -0.6150454 0.74560374
C 0.204448 -0.033248443 0.8950882
O 0.092580035 1.0950758 -1.3617911
N 1.225937 -0.92100173 0.99341416
H -1.6933993 0.18726204 -1.0033785
H -1.2450349 1.5743206 0.102639176
H 1.0309713 -1.9187707 1.0156891
H 0.068746924 0.49959117 -2.1192896
H 2.1554222 -0.6007438 1.2127709
