10

C 0.55297214 1.10177366 -0.75458969
O 0.46718930 1.92917485 0.34599875
C -0.04027474 -0.66939491 0.56026376
O -0.28439621 -0.04924892 -0.60926774
N -0.83967901 -1.73754132 0.61475922
H 0.69822439 1.35510978 1.09797578
H 0.17251495 1.63626259 -1.62589565
H 1.57650588 0.74251060 -0.93193149
H -1.50283315 -1.97241381 -0.11882478
H -0.80022341 -2.33623259 1.42151181
