10

C 0.5950418 1.3851205 -0.58358395
O -0.40527692 0.3848367 -0.3831221
C -0.02723224 -0.62482613 0.4322984
O 1.0530686 -0.7147953 0.96324754
N -1.0590751 -1.5051616 0.57882977
H 0.85336 1.8685974 0.36308992
H 0.1458767 2.1070354 -1.2667699
H 1.4956242 0.95191306 -1.0243137
H -1.8267777 -1.4596941 -0.0698451
H -0.8246092 -2.393026 0.9901691
