10

N -0.82408459 -0.51505315 2.63741968
C -0.67426451 -0.12010387 1.56500034
C 0.22805259 1.60970750 0.12925805
N 0.77387367 2.62481589 0.08839425
C -0.50099194 0.33146476 0.16938397
C 0.15660741 -0.77522672 -0.64653073
N 1.20309887 -0.54621953 -1.30311132
H -1.50494534 0.50270867 -0.24476492
H -0.37855991 -1.72937404 -0.59996427
H 1.52121359 -1.38271951 -1.79508520
