10

N 0.60294807 -0.17179556 3.3054323
C 0.35047007 -0.027228722 2.1850755
C 0.04203364 0.13579854 0.79759574
N -0.6543568 1.1245011 0.2824901
C -0.70178056 0.86433125 -1.0551046
C -0.022633826 -0.2939057 -1.3494263
N 0.45128322 -0.7545411 -0.15395702
H -1.2211992 1.5229752 -1.7351636
H 0.15677336 -0.8115997 -2.2777584
H 0.99646187 -1.5885353 0.0008161393
