10

N -1.5476992 1.8621275 1.0223312
C -0.83096135 0.9401512 0.84903467
C -0.14116475 -1.0644249 -0.44707182
N 1.8498747 1.8112023 0.07539124
C -0.24579303 -0.38366467 0.8151496
C 0.9562823 1.150483 0.17893809
N 0.22187105 -0.3983146 -1.4673047
H -0.098870434 -0.8634575 1.7732925
H 0.21579649 -0.91995746 -2.339695
H -0.37933594 -2.134145 -0.46006602
