11

N -3.0510015 -0.63136303 1.108379
C 0.3805393 -0.3665553 0.36219567
C -0.89822626 -0.21216927 -0.27714765
C -2.0901997 -0.45577073 0.48288456
C 1.5058858 0.19074574 -0.3810179
O 0.86709505 1.2803205 0.30421734
H 0.5263116 -0.70572186 1.3828541
H -0.24254842 1.1276487 -0.16656578
H 2.517045 0.022325592 -0.017242754
H -0.94309086 -0.48587757 -1.3307186
H 1.4281899 0.23641708 -1.467838
