11

N 0.32767317 2.93123 0.44816872
C -0.20807596 1.9121336 0.35127673
C -0.8539074 0.6016946 0.20532963
C 0.009698771 -0.35552275 -0.5950062
C 0.914157 -1.2937205 0.06603837
O -0.33363512 -1.7213438 -0.46935666
H -1.8237815 0.7356641 -0.287812
H -1.0469221 0.17620887 1.1958224
H 0.24050634 -0.03374869 -1.6099408
H 1.7970831 -1.655561 -0.45774326
H 0.9772035 -1.2970346 1.1532229
