11

N -0.08671994 3.41312599 1.11872799
C 0.12983628 2.29668268 0.90733734
C 0.42625622 0.91452155 0.65035454
C -0.44285778 0.07589800 0.08215409
C -0.11330315 -1.35849894 -0.22143366
O -0.28423439 -1.65343702 -1.59142806
H -1.43112440 0.41968966 -0.21725032
H 0.29004423 -1.07057246 -2.10229552
H -0.81031226 -2.02177853 0.30351130
H 0.90122851 -1.60101960 0.12874537
H 1.42118648 0.58538850 0.94157677
