11

N -3.403575 -0.39493617 1.0808351
C -2.2651834 -0.45091388 0.8834539
C 1.2479955 -0.029300127 -0.5907948
C -0.24012455 0.021831417 -0.38793865
C -0.84740436 -0.530256 0.6646349
O 1.8023134 1.2637514 -0.7084385
H -0.8123345 0.56860656 -1.1350125
H 1.4794753 -0.52757245 -1.539199
H -0.28414536 -1.0676082 1.4242513
H 1.5983851 1.7566981 0.095258825
H 1.7245978 -0.61030066 0.2129494
