10

N 0.90258235 1.9270924 -1.8480438
C 0.35221964 1.0801125 -1.2849176
C -0.32746175 0.022653965 -0.57284534
C -0.48177668 0.120454706 0.928799
C 0.4650986 -0.87825227 0.34863853
H -1.1445519 -0.42910436 -1.1276425
H -1.4207351 -0.22827151 1.3465945
H -0.06534198 0.9968229 1.4137868
H 0.19080462 -1.9277741 0.3586236
H 1.5291622 -0.6837344 0.437007
