10

N -1.05010236 1.26065873 0.32329622
C 1.04658470 -0.08323690 0.03929144
C -0.06458368 -0.83658611 -0.63081037
C -1.62116244 2.26818391 0.13163147
C -0.36329892 0.05441668 0.54085913
H -0.39181446 -0.49011882 -1.60573642
H -0.62125117 -0.40952391 1.48915679
H 1.46557406 0.76912721 -0.48415977
H -0.14634863 -1.90808943 -0.47361332
H 1.74640289 -0.62483153 0.67008502
