10

O 0.7947169 1.9364972 -0.7572272
C 0.3557304 0.8918918 -0.37663502
C -0.9295298 0.44043964 0.32744634
N -0.5074989 -0.9570724 0.09599536
C 0.833198 -0.5649956 -0.39074522
H -0.95407766 0.7646634 1.3768142
H -1.87341 0.7255708 -0.1500975
H -0.4928483 -1.5293325 0.931485
H 1.6640702 -0.7292566 0.3096676
H 1.1096491 -0.9784055 -1.3667036
