10

O 1.5965384 -0.19952875 -0.35486645
C 0.680155 -0.45390078 0.68539643
C -0.63252157 0.61046225 -0.513137
N -0.09600602 0.76120216 0.8777804
C 0.27121904 -0.6081775 -0.7002571
H -1.6982752 0.35633937 -0.5324603
H 0.16052867 -1.4619826 -1.3589514
H -0.8228727 0.6651507 1.5827289
H -0.43707952 1.4720086 -1.1575596
H 0.97831404 -1.1415735 1.4713262
