10

O 0.46667385 1.0461582 -1.1231757
C 0.23386577 0.5920206 0.9049676
C 1.179124 0.18956272 -0.25973505
N -0.71943843 0.2231603 -0.19884321
C 0.15124026 -0.9387 -0.55994844
H 0.054146845 -1.2258306 -1.607041
H 0.037504766 -1.782022 0.13051958
H -1.747121 0.29692328 -0.21823743
H 0.1365277 -0.055802 1.7833518
H 0.20747633 1.6545297 1.148142
