10

N 0.8059622 -0.1555248 1.6808964
C -0.37915996 0.13967448 1.3650949
O -0.7930378 0.20957384 0.08759027
C 0.2155188 -0.08597649 -0.8714682
C -0.38749334 0.039238587 -2.2030456
N -0.8151266 0.12497738 -3.2739127
H 0.91967195 -0.15301332 2.6923456
H -1.2189466 0.37418672 2.0245585
H 0.59737265 -1.101915 -0.7277775
H 1.0552387 0.60877854 -0.77428186
