10

N -0.02025618 0.55399913 2.12439585
C 0.05298188 1.07262769 3.17372125
O 0.28642419 0.75831616 -0.13242783
C -0.13671340 -0.13344756 0.89106818
C 0.22800644 0.24792614 -1.37302542
N -0.16447768 -0.93122794 -1.61469034
H 0.49695841 -1.02376438 0.90499200
H -1.17647628 -0.42831305 0.72838127
H -0.13134135 -1.11905802 -2.61352044
H 0.56489397 1.00294177 -2.08889471
