10

N -2.30716556 -1.40201284 -1.11755381
C -1.65346367 -0.61958696 -0.57825222
O 1.36048466 -0.33319724 1.70636879
C -0.80903402 0.39357776 0.07269601
C 1.54051632 -0.11961878 0.52975759
N 0.57358417 0.29286979 -0.34316457
H 0.80510768 0.37577255 -1.32065205
H -0.82073787 0.24138526 1.15450762
H -1.21722188 1.38589370 -0.14564576
H 2.52793057 -0.21508301 0.04193887
