10

N 0.2708712 0.13589267 -0.6638489
C -1.7267939 -0.18252678 0.6611148
O 2.0343106 -0.6588343 0.54877216
C 1.4681505 -0.5040321 -0.5085547
C -0.48543862 0.58643264 0.48494366
N -2.7097354 -0.7761499 0.7697436
H 1.8832579 -0.849547 -1.473113
H -0.15623772 0.15225822 -1.576684
H -0.7375686 1.6487222 0.40156052
H 0.15918407 0.44778427 1.356066
