11

N -0.6300312 -0.71444416 -1.9410281
C -0.32459897 -0.2784486 -0.7994134
C 0.70714355 -0.87499374 0.13406055
O 0.43838486 -0.24369155 1.3705031
C -0.13036454 0.9899261 1.049117
O -0.84550357 0.81129843 -0.17066397
H -1.3323005 -0.12775059 -2.3837936
H 0.5896494 -1.9546643 0.23928788
H 1.7198994 -0.6490492 -0.22733167
H -0.8287497 1.2794195 1.8341248
H 0.6364711 1.7623981 0.89513725
