12

N 0.8613991 -1.738002 0.564332
C 0.26728648 -0.5461292 0.16853343
C 0.9283647 0.39346826 -0.62608176
N 0.343779 1.5070045 -1.0615275
C -0.9217126 1.6958685 -0.69937396
N -1.6522208 0.8808436 0.05844509
C -1.0538107 -0.22723952 0.48588976
H 1.869421 -1.7323716 0.6041909
H 0.44677785 -2.178365 1.3731414
H 1.9657197 0.23831247 -0.9216989
H -1.4047883 2.6019058 -1.0533899
H -1.650215 -0.89529586 1.10754
