12

N -1.3143349 0.35401344 0.8682841
C -1.4153187 -0.9687115 0.97629523
C -0.68139225 0.6208524 -0.4235523
N -0.79789484 -1.7490281 0.10289589
C -0.06736173 -0.8534747 -0.6481778
N 1.8014412 0.9771212 -0.044239763
C 0.63350904 0.3642314 -0.061123192
H 2.624801 0.50074637 0.29759505
H 1.8717775 1.9756476 -0.19861716
H -1.0920292 1.3641583 -1.109209
H 0.4049538 -1.1894667 -1.5711422
H -1.9681505 -1.3960898 1.810991
