11

O -1.20998045 1.77892185 -0.44789069
C -0.63401771 -0.43142227 0.52155385
C 0.65197331 -1.20142138 0.37781139
C -0.46175001 0.69032524 -0.17644598
C 1.58546505 -0.37001754 -0.49115734
N 0.83607619 0.69386508 -0.75342814
H 0.52292677 -2.18254276 -0.09756577
H -1.51365332 -0.72901566 1.07572811
H 1.14402021 1.47187874 -1.32382596
H -2.06937193 1.68431374 -0.02051357
H 1.14831192 -1.40488459 1.33573426
