11

O -1.4401158 1.6296695 0.31538108
C -0.5553379 0.63188463 0.114963904
C 0.80675256 -0.4573052 -1.4254369
C 0.9118602 -1.0853212 -0.042579673
C 0.0012372156 -0.31149647 0.8735505
N -0.068323694 0.51835865 -1.2143979
H -1.7155967 1.6247067 1.2396328
H -0.38530633 1.1551294 -1.9351846
H 0.6471988 -2.147459 -0.12656341
H 1.9632795 -1.0711824 0.27314657
H -0.16564763 -0.48698497 1.9274874
