10

N 0.16452299 1.7979105 -0.58599013
C -0.13098677 -1.4769876 0.34945893
N -1.4786631 0.18210974 -0.13038616
O -1.4103253 -1.2083304 0.23180957
C -0.22153561 0.5541724 -0.19546653
O 0.52627164 -2.5171082 0.64655566
N 0.66540724 -0.44987425 0.10810608
H 1.0396347 2.1232927 -0.20486712
H 1.4196872 -1.4881822 0.39323398
H -0.5740129 2.4829972 -0.61245424
