10

N 0.22571093 1.7677437 0.39362046
C -0.20327313 0.48019138 0.16435592
N -1.4029053 0.04951004 0.36042386
O -1.3368131 -1.3382864 0.10305368
C -0.08128428 -1.6989077 -0.2604995
O 0.2805348 -2.811161 -0.5233111
N 0.6442131 -0.5151993 -0.2528738
H 0.757005 2.1731563 -0.36486027
H -0.531231 2.3709738 0.68432343
H 1.6480429 -0.47802052 -0.30423272
