10

O -1.214288 1.8266004 -1.2507125
C -0.46196046 1.6218003 -0.33507374
N -1.005135 -0.8532887 0.57515496
C 0.1745426 -1.1800454 0.24731849
C 1.1175427 -0.13990903 -0.25707942
N 0.82305145 1.0675939 -0.48798022
H 2.1475997 -0.46526742 -0.4267924
H 0.58581734 -2.1943016 0.31974947
H -0.63141483 1.9719291 0.70086133
H -1.5357555 -1.6551118 0.91455406
