10

O -2.3843868 0.9592652 0.41084638
C -1.7679996 -0.056213073 0.62681425
C -0.3574585 -0.22681303 0.21010868
N 0.27411327 -1.3438858 0.46289042
O 1.536295 -1.1754271 -0.030929003
C 1.6381159 0.04926002 -0.576855
C 0.47108567 0.7167326 -0.46445212
H -2.215326 -0.9220661 1.1510303
H 2.6044195 0.28939173 -1.0002998
H 0.2011415 1.7097557 -0.7891538
