10

O 0.84729147 -1.9437484 1.423358
C -0.6655024 1.8304538 -0.29482138
C 0.12386171 -0.5990546 -0.38697824
N -0.35143018 0.28052 1.6202049
O -0.46083912 1.9778284 -1.4665849
C -0.22455129 0.5535405 0.41860154
C 0.8033204 -1.7023926 0.23073345
H -1.1679752 2.5712721 0.34791
H -0.27743956 -0.6568022 -1.3938973
H 1.3732642 -2.3116174 -0.4985264
