10

O -0.63626325 -1.4741602 -2.288453
C -0.6780069 -1.4149513 -1.1077479
C -0.45292562 0.012117214 -0.34523264
N -1.667167 0.1343424 -0.16817231
O -0.49502596 1.5389639 1.6616548
C 0.8037617 0.37692478 0.098520085
C 0.61272246 1.2580004 1.2196321
H 1.5249717 1.7057686 1.6521225
H -0.7551287 -2.2255323 -0.3770434
H 1.7430612 0.08852669 -0.34528014
