11

C -0.5205611 1.1369575 0.4777219
C -0.12875836 -0.23146023 -0.031704366
C 1.2589508 -0.7143829 0.029016234
O 0.27911878 -1.1815183 0.9404157
C -0.9880962 -0.77481043 -1.0802515
N -1.6776122 -1.1692073 -1.9188827
H -1.5266707 1.1132512 0.9042147
H 0.18238997 1.4508588 1.2550718
H -0.5056907 1.8699762 -0.33384567
H 1.6138104 -1.4473684 -0.6927381
H 2.0131195 -0.052296385 0.4509822
