11

C -1.08652909 0.18893060 0.79091508
C 0.01467296 0.00511956 0.02417650
C 1.46066494 0.07946628 0.40752725
O -2.20738220 0.03858670 0.06764534
C -0.55852723 -0.27747949 -1.24907327
N -1.86304701 -0.25667791 -1.22730215
H -1.23189744 0.42544043 1.83568446
H 1.56718452 0.26191632 1.47945205
H -0.05198890 -0.49660044 -2.18026447
H 1.98147219 -0.85603131 0.17370964
H 1.97537744 0.88732900 -0.12247024
