11

C 0.12266071 -0.38789392 -1.2988582
C 0.5215799 -0.7463683 1.2125025
C 0.07187126 0.054177504 0.12690437
O 0.11785284 -0.66621524 2.3620453
C -0.63870215 1.2935514 0.47699422
N -1.2547019 1.3515224 1.5576836
H 1.3468112 -1.4268354 0.92403203
H 0.9620129 -1.0750778 -1.454977
H -0.7905763 -0.91340697 -1.6021963
H -0.6983443 2.0460646 -0.3354969
H 0.23953572 0.47048154 -1.9686339
