12

N 1.5184635 -0.5591591 0.53593415
C -0.65429384 -0.5465358 -1.1096423
N -0.5354274 0.034765687 1.1861794
C 0.18895258 -1.1495616 0.89792645
C 1.301625 0.43737265 -0.2454646
C -0.14174566 0.71289986 -0.4943839
N -0.5165703 -1.5819688 -0.3655708
H -0.49313024 1.6897523 -0.8229318
H 2.1092691 1.0169842 -0.6833156
H -0.13899702 0.6340162 1.9066486
H -1.0973194 -0.5981605 -2.0998366
H -1.5408264 -0.09040519 1.2944567
