12

O -1.8424025 -0.63453215 -0.44675577
C 0.12264849 0.7127935 0.076208994
C -1.3627524 0.58274084 0.09921231
C 1.6216226 -0.6006732 -0.4775832
N 0.89500546 -0.28061217 0.6152324
H 0.61997676 1.6055673 -0.28547186
H 2.7119048 -0.5906106 -0.46172485
H -1.7145538 0.7081845 1.141523
H -1.8123946 1.3832762 -0.49448708
H -1.3673921 -1.3475226 0.002151214
H 1.104569 -0.97565675 -1.3483549
H 1.0237685 -0.56295496 1.5800498
