10

C -0.94263405 0.191649 0.8995462
C -0.5574105 -0.3256486 -0.37789783
O -0.8077734 -1.4677895 -0.8465093
C 1.0657732 0.027420945 -0.34065044
H -0.70341074 1.2203498 1.1566277
H 1.5386908 -0.65814745 0.36376524
H 1.3593341 -0.22965257 -1.3583219
H -1.460383 -0.42289832 1.6338645
H 1.3086238 1.0646402 -0.11597353
H -0.8008102 0.60007656 -1.0144504
