10

C -0.34580182 0.04988324 -0.51242633
C -0.43118093 0.53830868 0.93589429
O 0.90024397 -1.90190346 -1.18027613
C 0.89479265 -0.78158322 -0.73414481
H -1.22082058 -0.53984263 -0.80035709
H -0.27932328 0.91400389 -1.18827566
H -1.28973909 1.20298231 1.07044119
H 1.84327138 -0.27773695 -0.44265623
H 0.47060871 1.09472257 1.21909376
H -0.54205074 -0.29883451 1.63270694
