10

O -0.8207553 1.9822772 -0.28676027
C -0.11531208 0.16404809 1.2467855
C -0.3765557 0.75202173 0.020136565
C 0.32271376 -1.0939679 0.7778775
N 0.309988 -1.2640873 -0.67526037
N -0.10931689 -0.07087661 -1.0446191
H 1.3751425 -1.0441576 0.09535088
H -0.0904519 0.1780268 -2.0237596
H 0.45011485 -2.024925 1.3238
H -0.94556713 2.4216406 0.566449
