9

N -0.6940261 -1.7303326 0.7217102
C -0.03823853 -0.7616807 0.26561219
O -0.46041813 -0.011214959 -0.8156091
C -0.3105604 1.3511128 -0.78288394
O 0.06088985 1.9809476 0.15785679
C 1.2875189 -0.46514225 0.7855067
N 2.3531535 -0.284952 1.1905386
H -1.5876126 -1.8224255 0.2388771
H -0.6107061 1.7436877 -1.7616087
