10

O 1.3144376 -0.91541654 0.485762
C 0.40552258 0.13675056 0.3660489
C 0.007309222 0.44542345 -1.0776999
O -1.3900245 0.18281856 -0.7610228
C -1.0843498 -0.20385002 0.506747
O -1.8061745 -0.6531368 1.340335
H 1.3315996 -1.2014383 1.4083034
H 0.6874008 1.021939 0.9542469
H 0.388966 -0.28190327 -1.7954018
H 0.14531307 1.4688134 -1.4273185
