10

O -1.6878647 0.9905228 1.0055399
C -0.807166 0.34584403 0.24747688
C 0.13990833 -0.7024718 -1.10695
O 1.5176528 -0.05780665 1.091439
C 0.47186622 -0.048694275 0.21595168
O -1.2253121 -0.16414659 -0.94481015
H 0.58389384 -0.29456776 -2.019308
H 2.1927943 0.55968565 0.77923334
H -1.292014 1.1666042 1.8682824
H 0.10624173 -1.7949697 -1.1368551
