11

N -0.7317364 -0.7579725 1.5603582
C -0.19445205 -0.13354537 0.42006865
C -0.12872979 -0.6130939 -0.8698747
N 0.403673 0.3939816 -1.6163656
N 0.69125676 1.4833064 -0.9080794
C 0.33165058 1.1792603 0.33020052
H -0.22092828 -0.5268556 2.4025407
H -0.77492 -1.7638144 1.4650815
H -0.41552046 -1.5601368 -1.3019475
H 0.5863986 0.39354825 -2.605266
H 0.4533081 1.9053216 1.1232839
