11

N -0.9385924 -0.64258194 -1.321957
C -1.8024836 0.17290828 -0.70133275
C 0.2476456 0.14156342 0.33756515
N 1.3143572 0.22302406 1.2013357
N 0.37625647 -0.61369765 -0.8072285
C -1.0241802 0.6494742 0.41173607
H -1.0200901 -0.96336764 -2.2725623
H -1.3773894 1.3352246 1.17131
H 1.1784761 0.8972512 1.9420922
H 2.2186916 0.32029927 0.7647069
H 0.8273089 -1.5200977 -0.72566533
