11

N -0.33136857 -0.37317613 1.0873908
C -1.3182641 -0.8444762 0.31462702
C 0.019055774 0.1327735 -1.0846745
N -1.1226869 -0.5994565 -1.0718895
C 0.5051538 0.22760929 0.22599322
N 1.6294299 0.89185286 0.66985637
H 0.3901667 0.58191615 -1.9968803
H -2.0294375 -0.011492434 -0.3886042
H 2.3872762 0.9661587 0.011763125
H -2.0486536 -1.5787243 0.6386292
H 1.919328 0.60701495 1.5937887
