11

N -0.97254091 -0.09782258 1.80462800
C 1.21364390 -0.09940139 0.61162886
C -0.70464961 -0.08442354 -0.66352840
N 0.36865546 -0.21267156 -1.53631662
C -0.23604914 -0.06070883 0.61539020
N 1.47274018 -0.11010093 -0.68827795
H 2.37777849 -0.26408569 -1.10250492
H -0.39225025 0.16917691 2.58741609
H -1.82664683 0.44469883 1.78487065
H -1.71006588 -0.07743531 -1.06441556
H 0.40938444 0.39277414 -2.34889009
