11

N -1.5406313 -0.47725126 1.1420361
C 0.68723375 0.4672994 0.5406121
C -0.46465918 -0.5803498 -1.1122396
N 1.3525788 0.6297373 -0.6366255
C -0.4780483 -0.20652467 0.27028546
N 0.72565246 -0.050571866 -1.6302655
H 2.293806 0.9545742 -0.7776481
H -2.144936 -1.1884019 0.75381076
H -1.2504444 -0.7379977 2.0761695
H 1.0972731 0.85073113 1.4678713
H -0.27782485 0.33875513 -2.0940063
