12

N 1.373912 0.94958824 -0.9624528
C 0.7693526 -1.1955132 0.00950897
C -0.54251546 0.97139484 0.44848242
N -0.20000835 -1.6663016 -0.6215793
C 0.55327135 0.26308322 -0.112417325
N -1.5396413 0.30475053 0.96980864
C -2.2248323 -0.6856412 0.8218829
H -0.5459542 2.0558596 0.45355186
H 2.164843 0.45008293 -1.3331971
H -2.5075135 -1.4373935 1.5469289
H 0.998367 1.6629312 -1.5677124
H 1.7007183 -1.6728407 0.34719518
