12

N 1.39036523 -0.94160807 1.30904183
C -1.61833040 -0.93574732 0.05619385
C 0.51667259 0.20836291 0.90133746
N -0.61672365 1.04953586 -1.11063802
C -0.52266495 -0.02351580 -0.17514872
N -0.68024260 -1.44071318 -0.63491355
C 1.92614500 -0.02052775 0.63875125
H 0.20911237 0.88808383 1.70309085
H -2.58742388 -1.19429852 0.46062782
H -1.19450070 0.80889797 -1.91166017
H 0.29812532 1.34322866 -1.44009026
H 2.87946585 0.25830131 0.20340793
