10

O 0.03305432 -2.5486455 0.5190181
C -0.24002597 -1.9913383 -0.5087059
O -0.23459382 -0.6681776 -0.69757473
C 0.13590638 0.09494512 0.46219552
C 0.10382507 1.5115155 0.10974994
C 0.088074625 2.687018 -0.13960448
H -0.53392977 -2.4872575 -1.4446365
H -0.56257826 -0.12261071 1.2772717
H 1.1362886 -0.20662749 0.7904936
H 0.07397881 3.7311788 -0.36820725
