10

O 0.48618841 0.64890245 1.20148048
C -0.24713113 -0.90432661 -0.27548138
O -0.52366007 0.74481622 -2.10613939
C 0.23056203 -0.61427023 1.08323712
C 0.25856616 1.35831341 0.08278806
C -0.21181330 0.50068451 -0.95361083
H 0.40226443 -1.60553267 -0.81599880
H 0.40390465 -1.22651893 1.95715548
H -1.26477054 -1.31584744 -0.30335486
H 0.46588935 2.41377961 0.12992413
