12

N -0.61716075 -0.88648324 -0.01040729
C -1.11448883 0.12540745 0.57681084
N 1.03812948 0.77591260 0.43155725
C -0.09328456 1.16740845 0.85892911
O -2.39302988 0.30306907 0.91158537
C 0.79961156 -0.57826514 -0.12502581
N 1.25660539 -0.72833244 -1.47453950
H -0.27394400 2.12375804 1.34048388
H -2.88467704 -0.47432211 0.60599276
H 2.22140004 -0.41435903 -1.54066627
H 1.35952003 -1.27324491 0.51356575
H 0.70131826 -0.14054833 -2.08828618
