12

N -0.5849612 -0.8904851 -0.17805885
C 0.7479166 -0.41228938 -0.50994015
N 0.8389798 -0.044287395 -1.8915453
C -0.92702764 -0.19817935 0.8317859
O -2.0763774 -0.2826606 1.5027277
C 0.11649262 0.7882238 1.2142637
N 1.1029037 0.6887594 0.41857943
H 0.0533335 1.4984187 2.0332701
H 1.7481792 0.37452802 -2.0696769
H 1.4655907 -1.2191561 -0.3144829
H -2.6189077 -0.9573454 1.0669501
H 0.1338776 0.6544735 -2.103873
