12

C -0.36697873 -1.2331576 -1.0107404
C -0.5758652 0.20104267 -0.5178614
C 0.07845513 0.53160936 0.71676284
O -0.60755885 0.060114346 1.7097963
N 1.1572471 1.2826653 0.945215
H -1.3758194 -0.07861866 0.81214935
H 1.7684983 1.5516956 0.1937361
H 0.591856 -1.3825172 -1.5361592
H -0.47215885 0.94562626 -1.3122119
H 1.3707374 1.5796112 1.8872001
H -1.1649029 -1.508791 -1.7078531
H -0.40350962 -1.9492803 -0.18003392
