12

C 1.401385 -0.29205287 0.882167
C 0.33571258 -0.50452846 -0.18531622
C -0.5906625 0.69315934 -0.31951514
O -0.22442508 1.8335711 -0.11341617
N -1.8687391 0.3974573 -0.6987242
H 2.1138647 -1.122043 0.8877429
H 1.9442732 0.6384525 0.6949098
H 0.95235133 -0.22075744 1.8774657
H -0.24810907 -1.4118626 0.017220326
H 0.8108478 -0.6481588 -1.1646281
H -2.141438 -0.53119147 -0.9694081
H -2.4850612 1.1679543 -0.90849763
