12

C 0.31521244 -0.21678607 0.53973656
C 0.67297824 -1.58781631 0.04199166
C -0.42191756 0.68298091 -0.12217115
O -0.89500290 0.54067090 -1.38769117
N -0.87809238 1.88836945 0.40726547
H 1.73512197 -1.67502059 -0.21809873
H -0.43799928 2.11616816 1.28669833
H 0.65752853 0.06151553 1.53427785
H 0.45929704 -2.34542007 0.80434727
H -0.48399632 -0.23406023 -1.78440066
H 0.09369322 -1.88057648 -0.84481207
H -0.81682334 2.64997470 -0.25714320
