10

C 0.2574555 -0.6251085 -1.4356616
N 0.112464376 -0.06859744 -0.10628654
N -1.026067 0.41428316 0.3642341
C -0.6622776 0.7856296 1.5764835
N 0.64105105 0.5396842 1.8305625
N 1.1144444 -0.0035475004 0.74556375
H -0.3843619 -1.5017056 -1.5389125
H 1.30292 -0.9047962 -1.5524669
H -0.021364817 0.12629569 -2.1761262
H -1.3342643 1.2378626 2.29261
