10

C 0.84902267 -0.34727061 0.84583857
C 0.05342497 1.50637377 -0.16277357
N 0.90830459 0.97872392 0.71347130
C -0.87874322 -0.45949785 -0.75943295
N -0.84234383 0.86380081 -0.91073306
C -0.03949246 -1.12965370 0.12171398
H 1.53929491 -0.79448666 1.55896551
H 0.09324919 2.58822193 -0.27894832
H -1.60544556 -0.99949881 -1.36476229
H -0.07727164 -2.20671298 0.23666107
