11

C -1.484991 -0.59278774 -1.0236952
C -0.7318844 -0.039768353 -0.100446954
C 0.040017534 0.55066496 0.76276517
C 1.3839772 0.019845154 1.1933036
N -1.3563784 -0.27859154 -2.4335697
O -0.4616997 0.48900297 -2.7022777
H 1.4039831 -0.11864165 2.2780108
H -0.30620253 1.4895935 1.1969435
H 1.6026173 -0.9346797 0.7102566
H -2.259993 -1.3200035 -0.810684
H 2.1705544 0.7353659 0.92939395
