11

C 0.35078275 -1.1923599 -0.9368535
C -1.1274183 0.6458796 -0.025289282
C -0.5301289 1.7396398 0.5320301
C -0.37809893 -0.49896476 0.18550858
N 0.6676011 1.4852386 1.1969156
O 1.034061 0.30132398 1.1602639
H 0.79708886 -0.4604828 -1.6159917
H -0.7128737 -1.1461792 1.0018941
H 1.131081 -1.8509547 -0.5470479
H -0.36907575 -1.7933302 -1.5044096
H -0.8630192 2.7701895 0.55297977
