11

C 1.0101216 -0.8109389 -1.1424125
C 0.21862741 -0.16250904 -0.060054738
C -0.88350475 0.63112897 -0.051059246
C -1.0932554 0.88362324 1.3307129
N -0.19911824 0.29606104 2.0768237
O 0.6329885 -0.3673456 1.2009499
H 1.0064577 -1.8994561 -1.0320168
H 0.5815952 -0.5573672 -2.1139195
H 2.0502613 -0.47299248 -1.1191227
H -1.4577906 0.9837454 -0.8945122
H -1.8663831 1.4760505 1.8046108
