11

N 2.0706062 -1.7588488 1.0246607
C 0.370016 -0.11503898 -0.044504814
C 1.2841707 -0.9877528 0.50196934
C -0.18749198 1.2339602 0.33944958
C -0.7692931 -0.22299953 -1.0277766
O -1.260337 1.0614268 -0.6010231
H 0.58604425 -1.4122294 1.2946717
H -1.4986068 -1.0250679 -0.85575926
H -0.4880839 -0.21482103 -2.0891137
H -0.5532173 1.3463963 1.3685061
H 0.44619262 2.0949755 0.08891978
