11

N 1.55079028 -1.37921957 -1.76621163
C 0.14698098 -0.11094982 -0.08328959
C 0.08225238 1.30330274 0.45271439
C -0.96276643 -0.43774718 0.89321367
C 0.82566351 -0.74879940 -0.99554747
O -0.97389374 0.92460122 1.35195154
H -0.24005752 2.07456413 -0.25853052
H 0.97226435 1.64895400 0.99068973
H -1.92316974 -0.72792719 0.44922470
H -0.69786114 -1.14001048 1.69216861
H 1.21979711 -1.40676821 -2.72638358
