11

O 0.27395067 -1.7443566 -0.38805717
C -0.10903626 -0.60136384 0.31855232
C -0.9955441 0.4569568 -0.3583624
C 0.88168424 0.5645091 0.48658922
O -0.10653511 1.5081205 0.049784586
H 0.6347993 -1.4726276 -1.242638
H -1.0381571 0.35214132 -1.4534979
H -0.5154543 -0.9594994 1.2672759
H 1.2473565 0.7857492 1.4957069
H -2.010302 0.59999377 0.029163346
H 1.737238 0.51037675 -0.20451675
