9

O -1.319674 -0.659699 0.8843472
C -0.5980008 0.2984581 0.15543328
C 0.8620707 0.19417095 0.33806646
C 2.0459247 0.07595031 0.50758487
C -0.93045104 0.2330416 -1.2940753
N -1.207834 0.14906368 -2.4103239
H -1.0068897 -1.538735 0.6325071
H -0.9447113 1.2678423 0.52840436
H 3.0995655 -0.020092947 0.65805584
