11

N -0.9341035 2.1309779 0.29305863
C -0.2864746 -1.2600852 -0.31022292
C -0.45211256 0.9771815 0.1274447
C 0.9650365 0.5881733 0.2789633
C 1.0698361 -0.71135986 0.028367292
O -1.1633924 -0.13625167 -0.22599125
H -1.9403104 2.1357095 0.12876637
H -0.33671382 -1.675776 -1.3221961
H 1.9660445 -1.320449 0.0516142
H 1.7350559 1.2978495 0.5524325
H -0.6228657 -2.02597 0.3977632
