11

N -0.40765823 2.10275108 0.95485719
C 0.84475552 -0.95466313 -0.16245991
C -0.54355041 -0.96457918 -0.73502422
C -0.20873769 0.97310035 0.43015803
C 1.03151532 0.17440613 0.51051196
O -1.11692148 0.27448638 -0.31664189
H 1.54921445 -1.76617791 -0.30353038
H -0.55213969 -1.00934763 -1.82925205
H -1.15589285 -1.78700803 -0.34820339
H -1.34764570 2.44150297 0.75203370
H 1.90706088 0.51552929 1.04755064
