10

N 0.2240084 1.7688777 0.39332905
C -0.20125253 0.48095775 0.16372949
N -1.399635 0.047574695 0.36314875
O -1.3345599 -1.3409983 0.10944569
C -0.078720644 -1.6998209 -0.26154622
O 0.28229764 -2.8115458 -0.52842075
N 0.6444557 -0.51348954 -0.2564217
H 0.7507616 2.1771955 -0.36625266
H -0.53576887 2.3685708 0.6843696
H 1.6484138 -0.47732177 -0.30138144
