10

N 0.61054129 -1.35121546 -0.17691670
C -1.21819389 -0.33294115 0.42191664
N -0.44895745 0.65226512 0.07712071
O -2.45751246 -0.27125848 0.87685111
C 0.67416482 -0.04670399 -0.29506238
O -0.70361694 -1.54052306 0.30910994
N 1.76426255 0.60056286 -0.80484348
H 1.85962598 1.55437974 -0.49383579
H -2.70117826 0.66572171 0.88241864
H 2.62086455 0.06971283 -0.79675888
