9

O 1.0074521 -0.944636 -1.5032467
C 0.30956545 -0.3492346 -0.52141815
C -0.9422635 -0.6226433 -0.08117693
O -1.1966329 0.26631966 0.94048613
C -0.089012675 1.0032156 1.0393478
N 0.84516984 0.6925692 0.20230852
H 1.8648162 -0.49969387 -1.5440124
H -1.7219051 -1.3218603 -0.32868335
H -0.07718949 1.7759637 1.7963948
