9

O -2.139452 -0.2729479 0.59383285
C -1.6403944 0.8024285 0.3644886
C 0.8154187 -1.3051336 -0.25929958
O 1.8978491 -0.049603343 -0.32877305
C 0.3971393 -0.03483978 -0.048184924
N -0.29034194 1.0190905 0.05070066
H 2.0599155 0.09684437 -1.271901
H 1.1177171 -1.9969656 0.518155
H -2.2178514 1.7411267 0.3809815
