10

C 0.10118163 -0.52227289 -1.27889670
N 0.19992866 -0.01131458 0.06964620
N -0.79113295 0.52217765 0.81429047
C -0.34476124 0.86896727 2.04404278
N 0.99752081 0.48632262 1.95541316
N 1.28423053 -0.01743203 0.79641453
H -0.21778901 0.27020101 -1.96019285
H 1.09459340 -0.87084647 -1.55974486
H -0.60555527 -1.35480779 -1.31435948
H -1.71821682 0.62900503 0.43338675
