10

C 1.0768778 0.59972423 0.8077502
N -1.913594 0.15963061 -0.96850455
N -1.13466 0.83235097 -0.18509713
C -1.2568487 -0.99199855 -1.3907367
N -0.02370978 -0.9787769 -0.75359803
N -0.047265265 0.13332184 0.018959532
H -0.7350566 -1.9016773 -0.5310523
H 0.75924885 1.5082523 1.3174623
H 1.9233423 0.806723 0.15051724
H 1.3516654 -0.16755028 1.5342994
