9

O -0.8766594 2.1962397 -0.01616701
C -0.5877097 0.91781193 0.23933893
N -1.2723424 8.198008e-07 0.7494142
N 0.27544105 -1.7720572 0.08858669
C 0.9814455 -0.76133597 -0.26602578
N 0.6905255 0.51802075 0.04873312
H 1.9272621 -0.8431763 -0.8147885
H -1.7771462 2.3788264 0.28770602
H 0.6391837 -2.6343303 -0.31679767
