9

O 1.08234662 -1.69907382 0.47447140
C 1.04884555 -0.55577890 -0.16109413
N 1.65506545 0.49817665 -0.42970772
N -1.42501879 0.31318102 0.66580226
C -0.91431375 0.71462958 -0.42060480
N 0.15938756 0.02454631 -1.03605590
H -1.25384106 1.56898620 -1.01610369
H 1.88477527 -1.74578822 1.01401185
H -2.23724681 0.88112106 0.90928053
