10

O -1.3130056 0.9184112 0.5300037
C -0.0138317635 -0.9878832 -0.58853924
C 0.20663095 0.76372236 0.699864
C -0.53792375 0.7315648 -0.5538885
O -0.61767834 -1.9423292 -1.075526
C 0.5458379 -0.64507407 0.72301006
H 0.82332456 -1.2872587 1.5547966
H -0.66075635 1.3834776 -1.4194008
H 0.63165075 1.6141632 1.2195376
H 0.9357518 -0.54879373 -1.0898577
