12

N -1.2944803 1.2835778 -0.62376744
C 0.53478706 -1.5527748 0.8790074
C 0.08715165 1.128518 -0.7277171
C -0.90041715 0.5252612 0.44129896
N 1.202762 -2.0625443 1.6751254
C -0.31717548 -0.8648866 -0.08787113
N 0.44889775 -0.2084416 -1.1625725
H 0.44969323 0.9845232 0.6097257
H 1.436334 -0.42518342 -1.1288239
H 0.7113007 2.005339 -0.9002518
H -1.2356781 0.7007551 1.4677833
H -1.1231753 -1.5141433 -0.44193685
