12

N -0.43274176 -1.6643153 2.3279884
C -0.34435472 -0.76954186 1.6050359
C -0.25410536 0.36226773 0.6625922
C 1.1518252 0.47995454 -0.008296176
N 1.0050654 -0.08046568 -1.3494592
C -0.2405842 -0.24364729 -1.536679
N -1.0999209 0.15266375 -0.51168466
H -0.5367982 1.2755069 1.1940655
H 1.4468243 1.5306392 -0.08474241
H 1.9279993 -0.051135212 0.54922456
H -0.6657166 -0.6240172 -2.4613316
H -1.9574928 -0.36790928 -0.3867133
