12

N -0.03236215 0.60798145 1.06125115
C 0.60194764 -0.94158524 -0.55620168
C -0.64713611 -0.41404152 0.21540002
C 1.19759573 0.90153622 0.46760121
N 1.62260458 0.09540127 -0.41800140
C -1.66313727 0.16688952 -0.68231757
N -2.45436532 0.64285454 -1.37404355
H -0.61611797 1.37691062 1.36040315
H 1.75958512 1.76559248 0.81503195
H 0.96234157 -1.86884963 -0.10005978
H 0.38923177 -1.14064329 -1.60957507
H -1.12018793 -1.19204611 0.82051179
