12

N -0.619894 1.1857451 -0.07236862
C 0.5601898 0.39458624 -0.24738973
C 0.09585709 -0.9953237 -0.76663357
C 1.3914605 0.23591104 0.9792911
N -1.1948802 -1.2627997 -0.14114465
C -1.8261775 -0.35734102 0.33293888
N 2.0196834 0.13545033 1.9448404
H 0.8091194 -1.7902358 -0.53278416
H -1.8917332 0.7064913 0.7108316
H -0.49678504 1.8742038 0.65795904
H -0.056943975 -0.9573545 -1.8475823
H 1.2101035 0.8306671 -1.0179582
