10

N -1.070662 -1.2705476 -0.17697182
C 1.0403297 0.07577213 -0.11798856
C -0.26876208 -0.33477777 0.4950064
C -0.1094208 1.0403526 -0.089616716
C -1.7353204 -2.046728 -0.75212353
H 1.297534 -0.37482223 -1.0710716
H -0.62489617 1.237134 -1.0246229
H -0.3252419 -0.43281865 1.576112
H 1.8774909 0.23181194 0.55665517
H -0.081051216 1.8746235 0.6046214
