10

N -1.31347873 -0.01076470 -1.03275603
C 0.73452805 0.72038602 0.20940424
C -1.87633094 -0.08708412 -2.05862104
C -0.62340524 0.07723369 0.18639049
C 0.60488047 -0.76408640 0.39017975
H 1.12144517 1.08034375 -0.73896273
H -1.28566726 0.23888193 1.03307235
H 0.97704458 1.33730672 1.06927279
H 0.90476300 -1.40105004 -0.43559528
H 0.75622102 -1.19116701 1.37761564
