9

O 2.5054777 -0.3055437 -0.04771797
C 1.4286561 0.21921416 -0.13311802
C 0.21047187 -0.2346459 0.6641638
C -1.0247128 -0.09437353 -0.108165056
C -2.0128095 0.038170096 -0.7780867
H 1.2537221 1.0961456 -0.7891657
H 0.16265057 0.3957854 1.5615767
H 0.37261248 -1.2638958 0.9983716
H -2.896068 0.1491437 -1.3678588
