11

C -0.6620935 -1.6266068 0.38953617
N 0.4477748 0.46817097 -0.17758764
C 0.60835844 1.7895818 -0.40807894
O 1.8121687 2.1393297 -0.77283055
C -0.7608263 -0.13039029 0.22940859
O -1.7583842 0.51027185 0.4227044
H 0.9520778 2.949253 -0.65141946
H -0.38169166 -2.0991483 -0.5581389
H 1.2786403 -0.105367176 -0.31910494
H -1.632642 -2.0065064 0.71078956
H 0.09661768 -1.8885881 1.1347218
