11

C 0.8516757 0.30686706 -0.09066559
N -0.56461287 0.2686606 -0.06721935
C 1.4728982 -1.0281388 0.2567903
O -2.5949988 0.8853735 -0.21175675
C -1.3421235 1.3368012 -0.33451825
O 1.4737972 1.2995703 -0.35499126
H 1.1387546 -1.8058672 -0.43969023
H 2.5576472 -0.93545127 0.20478703
H -3.1775973 1.6303616 -0.39922935
H -0.99871975 -0.6227322 0.1680543
H 1.1832798 -1.3354446 1.2684392
