11

C -1.4732064 0.79461944 -0.44978166
N -0.48010045 -0.08621181 0.12715103
C 0.8418213 0.02551344 -0.1247506
O 1.387365 0.8436296 -0.8408965
C 1.676241 -1.0245146 0.6076698
O 1.1966491 -1.8617256 1.3277725
H -0.95517623 1.5211744 -1.0782404
H -2.1810045 0.23036127 -1.0637174
H -2.0211122 1.3252754 0.33445907
H -0.75141543 -0.833738 0.7525785
H 2.7599392 -0.93438345 0.40775564
