11

N 1.6341573 1.371894 1.4156158
C -0.4376208 -0.7650895 0.80987245
C -0.6349831 0.5849869 0.2721191
C 0.33219507 -0.3450677 -1.4983253
C 0.675785 0.90143484 0.94384426
O -0.5233729 0.5871232 -1.1104795
H 0.24094152 -0.60613966 -2.5455356
H -1.4509189 1.2330297 0.6036886
H -0.5279729 -0.8577062 1.8853947
H -0.58761984 -1.6539193 0.210683
H 1.2794094 -0.45054638 -0.98687744
