11

N -1.6867062 0.63328564 -1.9822742
C -1.0783066 0.8399972 -1.0231102
C -0.2820497 1.0865556 0.1952697
C 1.0301416 -1.4118863 -0.3216935
C -0.26007313 -0.07364618 1.1281338
O 0.41348916 -1.1217582 0.78265786
H 0.8609919 -0.8163813 -1.2109386
H -0.6896733 1.9617717 0.707355
H -0.5883799 -0.06809363 2.1551712
H 1.5347714 -2.3662052 -0.30589375
H 0.74579495 1.3363605 -0.124677375
