11

N -0.35451216 2.65219822 -0.12492081
C -0.13291969 -0.66893094 0.93840898
C 0.82588566 0.43407302 0.65404806
C 0.16665096 1.68398528 0.22697124
C -0.75790617 -0.91536573 -1.32128163
O -0.74466185 -1.21811790 -0.05946065
H 1.42224909 0.64128488 1.54612736
H -0.36211712 0.03617710 -1.65581405
H 1.52218255 0.13437631 -0.15005752
H -1.35054671 -1.58374822 -1.92763751
H -0.23430455 -1.19593214 1.87361636
