12

N 0.0073012174 -1.8199153 0.77775997
C 1.2661377 -0.053158287 -0.5038345
N -2.0710137 -0.6256749 0.14928237
C 1.23419 0.93707365 0.592367
C -0.80089885 -1.0893602 0.15621549
C 0.8349799 1.3615144 -0.5784413
N 0.26924473 -1.1165082 -0.68548715
H 1.4208871 1.1189721 1.639325
H 2.213306 -0.38407913 -0.9447878
H 0.4483159 2.1589484 -1.1948618
H -2.5599587 -0.6539495 1.0339013
H -2.2624917 0.16613708 -0.44143856
