12

N -1.53173025 -0.70100419 -1.36574064
C -0.99801958 -0.91453321 -0.14189338
N -1.27587401 -1.06818431 1.07153313
C 1.06226816 -0.15808484 0.84046135
C 0.64371228 1.25870266 0.86806271
C 1.42965239 0.90985973 -0.11728875
N 0.20705004 -1.26319549 0.38787022
H -0.90146722 -0.40001316 -2.09013982
H -2.45937652 -0.29900948 -1.38276921
H 1.78820806 -0.55148622 1.56110192
H 0.06581030 2.01094090 1.38209659
H 1.96976647 1.17600794 -1.01329443
