11

C -1.9933592 -0.44962582 -0.25005093
N -3.036902 -0.41874117 0.26280016
C -0.7325748 -0.3901651 -0.894482
C 1.2826811 0.088625036 0.6452921
N 0.23708014 0.63771325 -0.2049606
H 1.8943882 -0.593452 0.047624324
H 1.9167801 0.8920881 1.0327766
H 0.103929944 0.6466373 -1.3370229
H -0.20085476 -1.3312185 -0.9823373
H -0.30377257 1.388795 0.20675248
H 0.8326048 -0.47065625 1.473608
