11

C 1.3796471 0.006519323 0.022191213
N 0.23873176 -0.62558836 -0.62994456
C -0.9987594 -0.49935138 0.10974999
C -1.4277906 0.9031292 0.33650777
N -1.7069511 2.0158246 0.46997932
H 1.2505332 1.0830336 0.21057488
H 2.2657692 -0.13457067 -0.60425395
H 1.5676074 -0.4910303 0.9803245
H 0.115901604 -0.246523 -1.5618271
H -1.798895 -1.0253067 -0.41995937
H -0.8857938 -0.9861359 1.0866573
