11

C -0.4373823 -1.3801701 -0.5692766
C -0.5135754 0.015177511 0.03692945
C 0.8428873 0.64424765 0.22695385
O 1.8983932 0.14430642 -0.05704166
C 0.8108923 2.008358 0.82167894
N 0.7729482 3.0651631 1.2807916
H 0.049072947 -1.3577338 -1.5480804
H -1.4442234 -1.7887276 -0.69090486
H 0.1361774 -2.0558228 0.07120327
H -1.0107067 0.0071864896 1.0157325
H -1.1044834 0.698015 -0.5879861
