11

C -0.67269737 -0.32061005 -0.38850796
C 0.8390934 0.77868253 1.0228729
C 0.7711138 -0.2669767 0.012934964
O -1.6563274 -0.082209945 0.4458807
C -1.0691605 -0.557654 -1.7423232
N -1.323535 -0.784351 -2.84975
H 0.7914876 1.8179419 0.70951116
H -1.1869649 0.17325297 1.2869341
H 1.335102 -0.052046206 -0.9098932
H 1.0877091 0.5580241 2.0526588
H 1.084179 -1.2640536 0.35968164
