12

N -0.19865252 1.64966543 2.14345885
C -0.67052154 0.98429466 1.32366896
C -1.28082622 0.18661494 0.23199965
C 0.67794846 -0.15257634 -1.17215033
N 1.23125139 -0.87523035 -0.29559549
C 1.66583462 -1.76607979 0.46772191
N -0.62163766 0.35678279 -1.04375890
H -2.32877966 0.47698356 0.12254120
H 1.19281148 0.05668931 -2.10454567
H -0.72069649 1.28154996 -1.43826028
H 2.30502397 -1.32814486 1.25286051
H -1.25175579 -0.87054952 0.51205945
