11

N 1.5667248 -1.6476012 0.0326955
C -0.8430317 -0.17120399 -0.81379586
C 1.0216616 -0.5929497 0.38236833
N -0.23745736 1.5209816 0.9476368
N -0.577898 -1.2633367 -1.4232726
C 0.0169097 0.317085 0.25660786
H -0.48098826 1.4006168 1.9201907
H 0.4800887 2.2244685 0.83964163
H -1.2567295 -1.4797289 -2.1446989
H -1.701736 0.4779285 -1.0230147
H 2.0124557 -0.7862596 1.0256412
