10

N 1.172292 1.5230021 -0.60672957
C -1.3246176 -0.75682414 0.29963952
N -0.8846098 0.44259378 -0.21956094
O -0.22264501 -1.5153496 0.52027816
C 0.4950804 0.50341314 -0.28667957
O -2.4404109 -1.1119533 0.5323043
N 0.92141175 -0.8053277 0.039338466
H -1.4848757 1.2189219 -0.43708935
H 1.6004753 -0.8280663 0.79336417
H 2.1678996 1.32959 -0.6348651
