10

N 0.22681917 1.767294 0.3969777
C -0.20067836 0.47959912 0.16563931
N -1.4029698 0.050254863 0.3576098
O -1.3368713 -1.3384231 0.10187088
C -0.0811851 -1.6984564 -0.259894
O 0.2831788 -2.8102496 -0.5232724
N 0.64441013 -0.5142842 -0.25261718
H 0.7537241 2.1739545 -0.36494958
H -0.5346013 2.368121 0.68174386
H 1.6481737 -0.47780955 -0.30310848
