10

N 0.10400509 1.251502 -0.13199078
C -0.5872243 0.12616794 -0.03979013
N 0.19576979 -0.8553633 0.48476574
O 2.5259056 -0.9927614 0.661784
C 1.5247132 -0.38956958 0.4138183
O 1.4818552 0.899747 -0.01640444
N -1.717896 0.3259039 -0.6774809
H -0.011444375 -1.838974 0.5258317
H -0.920187 1.5038824 -0.89485985
H -2.5954967 -0.03053481 -0.32567355
