10

O 0.022556879 0.3227398 2.0212853
C -0.025691966 0.11964325 0.6883764
C 0.8898002 -0.28646064 -0.25633365
C 0.14476222 -0.2790711 -1.4606247
N -1.108346 0.09459265 -1.277401
N -1.1915426 0.33509925 0.048828125
H 0.9154901 0.13635889 2.3338616
H 1.9266285 -0.5465009 -0.10201624
H 0.4864286 -0.5380564 -2.4530704
H -2.060086 0.6416553 0.45709485
