10

C 0.32182783 -0.86494286 -1.83285478
N 0.09396819 0.32375459 -1.05001081
N -1.21755259 0.83353743 0.93390406
C -0.51225128 0.51252643 -0.03438217
N -0.74709827 0.58680701 2.23353385
N 0.33559466 1.14071265 2.45656191
H -0.06591622 -0.69260142 -2.84137419
H 1.40014373 -1.02786780 -1.90450711
H -0.15439198 -1.74946336 -1.39967347
H 0.54567581 0.93753715 3.43880268
