10

C 0.7538585 -0.0637363 -1.540707
N -1.5517825 0.28856865 1.4511479
N 1.1514406 -0.308368 0.27936935
C 0.020582668 0.021457644 -0.059559256
N -1.2225786 0.33735824 0.08511536
N -0.63112754 -0.055727813 2.2094946
H 1.8145964 -0.2792624 -1.6587892
H 0.5351315 0.9406686 -1.9073125
H -1.025282 -0.038360655 3.1567066
H 0.15516086 -0.84259796 -2.015466
