9

O 0.13110544 1.3233575 1.0301266
C -0.8283022 -0.24912608 -0.5543867
N -0.6897804 -0.10073051 0.7939092
N 0.37514412 -0.52022827 -1.0429564
C 0.763498 -0.3617884 1.087637
N 1.3522539 -0.5854396 -0.15388434
H 0.5852302 -0.7238011 -2.012385
H -1.7379583 -0.19298534 -1.1366814
H 0.04880937 1.4107419 1.988621
