11

C -1.24876429 0.91546110 -0.25885170
C -0.13381637 -0.08817849 -0.27473853
C 1.11071656 0.12980276 0.28237116
O 0.02252086 -1.01869092 -1.34673996
C -0.40270574 -1.60430570 -0.12862990
N 2.23212371 0.39667086 0.66795442
H -2.14460818 0.42242690 -0.63880576
H -1.44243634 1.25657356 0.76138996
H -1.00915980 1.77657038 -0.88851801
H 0.44641422 -2.19754253 0.27803511
H 2.56971548 0.01121206 1.54653314
