10

O -0.5670094 -1.8766031 -0.7874952
C 0.21363409 -0.9892477 -0.04641569
C -0.31478655 0.41947576 -0.14688125
O -1.293652 0.69156146 -0.8099806
C 0.40205833 1.5249447 0.61034876
O 1.3774744 1.3175416 1.2849581
H -1.2624604 -1.3554963 -1.2107111
H 0.24168764 -1.2692386 1.017666
H 1.2592529 -0.98895115 -0.39222956
H -0.05619901 2.5260131 0.4807406
