11

C -1.6916283 -0.23035298 0.49302033
C 0.45114166 0.7396683 0.61698616
O -0.8071758 0.6108591 0.9382057
C 1.0673833 -0.295977 -0.24341081
O 0.5216621 -0.39191845 -1.5628729
H -2.6637716 -0.13377993 0.9600426
H 0.9658418 1.5039785 1.1777385
H 2.1504788 -0.1252701 -0.28168884
H 0.5657665 0.49178445 -1.9439647
H 0.88942504 -1.2949475 0.18520138
H -1.4491236 -0.8740445 -0.33925763
