11

C -0.83858204 -0.14164491 -0.7130419
C 0.40578023 -0.92720085 -0.29326296
O 0.6568548 -0.43014693 1.0095961
C 0.34958935 0.9353832 0.92274046
O -0.7369445 1.0661546 0.028937167
H -1.7614462 -0.6630918 -0.43511665
H -0.86193246 0.08083536 -1.7855351
H 0.25197694 -2.0064023 -0.23136619
H 1.256054 -0.7144475 -0.9586066
H 0.0660841 1.2967262 1.9152046
H 1.2125659 1.5038351 0.540451
