10

N -1.05960997 -0.75203445 1.72076393
C -0.45896376 -0.57255038 -0.60327519
C -0.37055384 -0.22984264 0.80659035
C 1.37746772 1.42468763 0.25025070
C 0.33161409 0.07767596 -1.44231335
O 1.21542372 1.04257586 -1.02528311
O 0.57322230 0.76871249 1.09831831
H -1.15745353 -1.33442832 -0.91921798
H -0.82908623 -0.36012567 2.63182694
H 0.37793971 -0.06467056 -2.51766068
