10

N 1.3718113 -1.1513218 -1.2112724
C 0.53575766 -0.39094093 -0.6478338
C -0.97177446 1.2693819 -0.31889704
C -0.813087 0.40346694 1.0940859
C -0.0057884543 -0.61163664 0.7026586
O -0.23203489 1.7360556 0.66046363
O -0.10681902 0.66878915 -1.2480038
H 1.6174884 -0.8167758 -2.1411207
H 0.11135498 -1.5720019 1.1908058
H -1.5069083 0.4649833 1.919114
