10

N 1.22869978 -0.83099680 -0.59020075
C -1.10887852 -0.11743961 -0.88809826
C 0.02991810 -0.10740389 -0.14684797
O -1.89479186 0.70417983 -0.03801188
C -1.16102078 1.06915685 1.02405714
N 0.04541479 0.61135547 1.03712741
H 0.94129908 -1.26218639 -1.47748689
H -1.62508110 1.70564873 1.76476153
H 2.02744958 -0.21304885 -0.75260915
H 1.51699075 -1.55926538 0.06730869
