12

N -0.06281581 2.72569111 0.96497079
C 0.26372317 -0.80624743 0.91662907
C -1.02184651 -0.82810993 -0.85731616
C 0.28205799 1.69970568 0.56126661
N -0.02351829 0.07174493 -1.22152066
C 0.69509538 0.39170438 0.01575248
N -0.92947507 -1.37242749 0.28709503
H -1.80318567 -1.06854415 -1.57346016
H -0.27708124 0.84080648 -1.82596591
H 1.77484636 0.41279590 -0.15476272
H 1.05225276 -1.56500180 0.94319316
H 0.04994691 -0.50211782 1.94411839
