12

N -0.21452923 -1.0757009 1.0458376
C -0.77880454 -0.78671926 -0.29854894
N -0.6791577 1.2924886 1.457905
C -0.15898912 0.23265922 0.7196926
C 1.2494042 -0.17282219 -1.0259558
C 0.06047829 -0.6857817 -1.4626584
N 1.2212883 0.18278079 0.2730715
H 2.1986475 -0.1559822 -1.5525669
H -0.2550452 2.1799414 1.2190895
H -0.6228305 1.1123635 2.4529788
H -0.20780131 -1.0149013 -2.4563956
H -1.812661 -1.1083262 -0.37244964
