12

N 2.1683478 0.39396024 -0.69287753
C 0.88655525 0.16657023 -0.2801344
N 0.70578265 -0.84115 0.58793926
C -0.54050606 -1.0237832 1.0059142
C -1.609531 -0.24001366 0.58556676
C -1.2927064 0.76410127 -0.3211426
N -0.0609857 0.9825614 -0.7676463
H 2.2876787 0.9653637 -1.5131737
H 2.8337204 -0.34461722 -0.53336
H -0.69294494 -1.8420633 1.7076902
H -2.619439 -0.4048526 0.9369179
H -2.0659716 1.4239231 -0.7156937
