12

N 0.87697764 0.88241840 -0.51295864
C 0.63674962 -0.42845472 -0.05888916
N 1.57697967 -1.43846948 0.06589773
C 0.15045001 0.68703818 0.79153201
C -1.30122712 0.91111602 0.54096822
C -1.44631164 0.47695265 -0.70526226
N -0.17278621 0.02021952 -1.20727828
H 0.68682267 0.99876407 1.68374204
H 2.16291160 -1.51758572 -0.75689439
H 1.15877499 -2.33372144 0.29067743
H -2.02349147 1.33425293 1.22528100
H -2.30584967 0.40746955 -1.35681561
