12

N 0.5667913 1.0688511 -0.5892228
C -0.16621153 0.78178436 0.6945261
N -0.057601135 -0.17946957 -1.2050965
C -1.450943 -0.14327091 -0.8312244
C 0.7472181 -0.18221165 0.03091033
C -1.5777497 0.45341775 0.34797892
N 1.9597576 -0.7779512 0.33844322
H 2.6105356 -0.7403342 -0.4372084
H -2.4606378 0.6721356 0.9325007
H 1.8530475 -1.7310481 0.66572964
H 0.14734265 1.3611859 1.5587512
H -2.1715498 -0.5830892 -1.5060881
