12

N 2.169584 0.3931643 -0.6940262
C 0.88714314 0.16555266 -0.28105295
N 0.70481473 -0.84090436 0.5870337
C -0.54232967 -1.0232254 1.0061013
C -1.6089286 -0.23881145 0.58588594
C -1.292798 0.766228 -0.32185358
N -0.061574318 0.98258764 -0.7678741
H 2.2911499 0.9610173 -1.5168062
H 2.833524 -0.34631467 -0.52936864
H -0.69547075 -1.8412482 1.7082561
H -2.6190553 -0.40335953 0.937686
H -2.0660586 1.4253136 -0.7139812
