10

C 0.54771185 -1.3204358 0.116403446
O -0.22720146 0.6319589 1.2352996
C -0.5858146 1.2527038 -0.15036647
O 0.92889047 0.963084 -0.43250418
C 0.64011467 0.02272925 0.45038038
O -1.3165984 0.47437298 -0.8198418
H 0.16195326 -2.0110364 0.85954475
H -0.780641 2.317806 -0.07083418
H 1.2227794 -1.7088687 -0.63955027
H -0.5911941 -0.6223138 -0.5485314
