10

O -1.8781145 -0.20722418 0.6236064
C 1.4053962 3.6488236e-06 -1.0231253
C 0.20950732 -0.5527008 -0.44402498
C -0.5563721 0.13898829 0.5625816
N 1.9237931 0.8860914 -0.3033366
N -0.06371812 1.0015293 1.365662
H 1.8984741 -0.4892203 -1.8750969
H -0.82097864 1.4541632 1.8817626
H -2.1510963 -0.6135784 -0.20639476
H 0.033109006 -1.6180522 -0.5816342
