10

N 0.98228802 0.42413013 -0.17409865
C -0.38761008 -1.46095907 -0.06944308
C 0.87296940 -1.01808897 -0.30179208
C -1.13144032 -0.17053285 0.23334485
C -0.15229502 0.96318015 0.13419896
H -1.58744718 -0.18867388 1.23286022
H -1.96904309 -0.00793798 -0.45995995
H 1.79382470 -1.52960769 -0.55947958
H 1.83666388 0.95595860 -0.30582219
H -0.25791036 2.03253153 0.27019149
