10

C -1.51983741 0.12575258 0.74031027
C -0.38613875 -0.07661557 -0.08911108
C -0.33396657 -0.50958975 -1.44391607
C -0.30044911 -0.86665920 -2.59270684
N 0.76193909 0.18502298 0.57301797
N 0.36802024 0.69765799 1.76424127
N -0.94136082 0.56134655 1.89597540
H 0.97290570 0.65398414 2.57384061
H 1.66638563 0.41580070 0.19030333
H -0.28749806 -1.18670052 -3.61195490
