11

C -0.5197324 1.1361905 0.47923076
C -0.1278774 -0.23180501 -0.031141091
C 1.2602733 -0.7132264 0.028425787
O 0.28028375 -1.1800311 0.9405313
C -0.989838 -0.7761406 -1.0807409
N -1.6807718 -1.1713222 -1.9196769
H -1.5251479 1.11238 0.9080971
H 0.18330115 1.4526453 1.2551274
H -0.50731003 1.8688108 -0.33284494
H 1.611274 -1.4450293 -0.6962727
H 2.0155458 -0.052472383 0.44926414
