11

C 1.1656404 -0.24635671 0.44356355
C -1.3079336 -1.0011798 -0.18391986
C -0.26841274 0.03763479 0.049378347
O -0.4134057 -0.07823992 -1.4081484
C -0.7467642 1.33394 0.5370166
N -1.1300781 2.3504224 0.9258578
H -0.74043524 -1.9450269 -0.2783924
H -1.1058475 0.5276919 -1.7181132
H 1.8266749 0.58919626 0.19473328
H 1.2160974 -0.42500138 1.5206345
H 1.5044646 -1.1430808 -0.08261
