11

C -0.51256505 0.26692265 -1.51375985
C -0.24354931 0.09819781 -0.08331207
C 1.22836666 0.20546268 0.25506518
O -0.77564623 -1.17556869 0.41990349
C -1.35627057 0.44821454 0.84054242
N -0.72970971 0.40715146 -2.63828089
H -0.88014233 0.51321412 1.83598391
H 1.55431369 1.24084839 0.12748527
H -1.49565142 -1.48056271 -0.15566438
H 1.37195566 -0.08725179 1.29884436
H 1.83889908 -0.43662886 -0.38680747
