11

N -0.87644476 1.8057759 2.2966056
C -0.2619716 -0.041731708 -0.5394044
C -0.87139845 -1.3854625 -0.39782897
C 0.6091668 0.47751853 0.5940509
C -0.21335705 1.2176485 1.5579784
O 0.45754054 -0.8395977 -1.5278603
H 1.3939553 1.1453648 0.2180779
H -0.73506755 0.76917905 -1.1027607
H -1.7007828 -1.409026 -1.1272193
H 1.0645168 -0.3730542 1.1102012
H 1.1338428 -1.3666143 -1.0818402
