11

N 0.48865688 -0.22972292 -1.2612203
C -0.13457772 -0.165644 0.95860165
C -0.86986583 0.8805076 0.13881871
C -0.3599674 0.77678734 -1.3029871
C 0.737528 -0.85447806 0.025944546
O 1.2837274 0.033183422 0.9782446
H -0.54957724 -0.63271636 1.8467487
H -0.70471907 1.8966405 0.511347
H 0.99321103 -0.5329735 -2.0834112
H -1.9549991 0.7150499 0.13801411
H 1.0705831 -1.8866341 0.049899258
