11

N -0.0376216 -1.1921331 -1.2704738
C 0.11411383 0.47411698 0.7426647
C -0.24262083 -0.048350964 -1.6165721
C 0.2111109 -0.96141726 0.8195078
C -0.09703642 1.0857035 -0.63378155
O -0.9907503 -0.33028626 1.1770823
H 0.7457813 -1.4983974 1.6047903
H 0.5680074 1.0974681 1.5117843
H -0.9892154 1.71938 -0.6570695
H 0.7509699 1.7052577 -0.94628793
H -0.032738656 -2.051341 -0.73164475
