11

N 1.8264618 -2.4217331 -0.2961012
C 1.1646165 -1.5180433 -0.57856494
C 0.3110401 -0.3730627 -0.9120048
C -0.5130173 0.051377352 0.29473832
C 0.04314459 1.0202932 1.2551649
O -1.2696999 1.2544007 0.074986935
H -0.48535162 0.9337748 2.214135
H -0.4686081 1.9523526 0.2676918
H 0.9416855 0.46475917 -1.2229102
H -1.2016507 -0.7183492 0.64708555
H -0.3486207 -0.6457696 -1.7442212
