11

N 0.32457024 2.9293776 0.45160687
C -0.20872024 1.9099618 0.3520621
C -0.85535264 0.6003432 0.20440933
C 0.009197985 -0.35631645 -0.59657824
C 0.9165721 -1.2911497 0.06588111
O -0.3311869 -1.7209615 -0.46611795
H -1.824931 0.73517644 -0.2871229
H -1.0483166 0.17420132 1.1951973
H 0.23633684 -0.0351662 -1.6121316
H 1.799479 -1.6528231 -0.4597525
H 0.9823513 -1.2926437 1.1525465
