9

O -0.24315083 -1.2150007 1.7557955
C -0.19015402 0.12694804 1.3353131
C 0.11509627 0.26450926 -0.099779785
C 0.33816764 0.33243322 -1.2815057
C 0.59930897 0.41431704 -2.6383116
N 0.817074 0.47969925 -3.7785895
H -0.91734266 -1.6737453 1.2395991
H 0.6027524 0.6008825 1.9190705
H -1.1217517 0.6699567 1.5484085
