11

C -1.45491013 -0.92157247 0.69159619
N -0.13343843 -0.23430696 0.66356838
C 0.18760843 0.27454888 -0.67566858
C 1.38685156 0.76836273 -0.89412982
N 2.53163203 1.12484509 -1.11501910
N 0.58701872 -0.12698487 1.63046755
H -2.23544357 -0.22386305 0.37763491
H -1.42897046 -1.77909635 0.01479098
H -1.60378393 -1.23761084 1.72174075
H -0.56712138 0.24356634 -1.44987104
H 2.73055692 2.11211127 -0.96511022
