11

N -0.98153895 -1.7042089 0.5947373
C -0.34679648 -0.537555 0.15381052
C 0.96725917 -0.162288 0.2690495
N 1.0421484 1.0510461 -0.39996558
C -0.19306912 1.3241564 -0.87546533
N -1.0593121 0.39167592 -0.5568271
H -1.9844049 -1.6009725 0.5153013
H -0.731948 -1.9723206 1.5369494
H 1.8310375 -0.62135 0.7227116
H 1.8661257 1.6162698 -0.5132167
H -0.40950122 2.2155466 -1.447085
