10

O 1.5064747 0.2658654 0.77696407
C -0.9722976 -0.046405062 0.6946879
C 0.31736192 0.383857 0.0391423
N -0.8271901 -1.2257485 -1.1759834
N -1.6114875 -0.9015787 -0.0061401012
C 0.25582337 -0.552451 -1.1367149
H 0.17000431 1.4102479 -0.3494756
H 1.5242919 0.96744025 1.4397411
H -1.3766539 0.33807996 1.6262572
H 1.013673 -0.63930714 -1.9084787
