15

N 0.53945682 -1.79002041 0.84697390
C -0.30110412 -0.85855090 0.17345997
O -0.65873647 0.29661288 0.93973887
N 0.40565388 -0.36522056 -0.99795487
C 0.85013184 0.98625047 -0.68030870
C -0.25105892 1.47556817 0.25416176
O -1.46121108 -1.56466117 -0.12178246
H -2.14794809 -0.93100088 -0.35514206
H 0.06422018 -2.15945504 1.66190706
H 1.39732054 -1.33333711 1.13177064
H -0.21354277 -0.40508355 -1.79745756
H 1.80820863 0.94722126 -0.15106423
H -1.09437140 1.89736111 -0.31300149
H 0.97692039 1.59278152 -1.58089906
H 0.08606054 2.21153407 0.98959837
