15

N -1.0916479 0.009965546 -0.20305674
C 0.6144349 -0.39022517 1.4470518
O 1.4054039 0.049173057 0.4057206
N -0.10069212 1.4570981 -1.7296822
C -0.07141438 0.2795382 -1.0604125
C -0.71080333 -0.93090594 0.8496073
O 0.6275626 -0.6970341 -1.6125113
H 1.2675388 -0.7910138 -0.79919964
H 1.0817206 -1.1933025 2.0382533
H 0.37220505 0.42900702 2.1516705
H -0.4234175 2.2767003 -1.2448131
H -1.5301019 -1.0100034 1.5693259
H -0.559416 -1.9090734 0.38194352
H -1.5806804 0.82539356 0.13433416
H 0.6993077 1.5946826 -2.3282313
