10

O -1.3154604 0.1666796 -0.9910808
C -0.7125214 0.37246287 0.06814803
C 1.0072826 0.3206416 -0.24051024
O 1.1200931 0.21899953 -1.5684237
C -0.49283463 -1.0239526 1.1593295
C 0.6079943 -0.78304344 0.59644973
H 0.15717474 0.12348341 -1.8622532
H -1.1306943 -1.6151364 1.7886147
H 1.6381165 1.0742049 0.23074518
H -0.8791506 1.1456603 0.8189809
