10

O 0.10362295 2.4931018 1.8458138
C -0.15414532 1.6928704 0.97823846
C 0.36756554 -0.31839314 -0.27582198
O -0.79158634 -2.218224 -1.1229373
C 0.7064882 0.5249455 0.67208064
C -0.014342123 -1.1146953 -1.2418857
H 1.6141847 0.417781 1.2635573
H -1.0621554 1.786164 0.3506205
H -1.063041 -2.3209026 -0.20036298
H 0.29340854 -0.942648 -2.2693028
