14

C 0.4041202 -1.6967245 1.6075468
N -0.32267877 0.20664875 -1.4926124
C -0.485082 1.8218257 -0.73862106
O -0.27407387 0.7957428 0.5257629
N 0.23847088 -1.4182506 0.19089523
C -0.09867743 -0.20658074 -0.27304375
N 0.43250898 2.6713464 -0.9120397
H 0.6657043 -0.7676137 2.1175454
H 0.25034007 -2.1773908 -0.46976772
H -0.51257294 -2.100332 2.0461512
H 0.014761073 -0.22486669 -2.3418646
H -1.5678118 1.9598438 -0.76272076
H 1.2141715 -2.416145 1.7349935
H 0.0408197 3.552496 -1.2322248
