14

C -0.82530325 -0.78356435 0.10821448
N -1.14248077 -1.96681023 0.41361132
C -0.30760942 1.62887633 0.45059590
O -0.32107165 -0.58202837 -1.17409716
N -1.01359671 0.39944569 0.77376664
C 1.01907003 -0.67357045 -1.31810384
N 1.82626559 -0.70462168 -0.34650950
H -1.27113453 0.27463531 1.74159908
H -1.56995640 -2.01482747 1.33415206
H -0.73638412 2.43371104 1.05409062
H 1.25111809 -0.68742959 -2.38940447
H -0.45673582 1.87843757 -0.60225456
H 0.76561724 1.55336680 0.65179136
H 2.78220150 -0.75562061 -0.69745176
