11

N 0.49429792 -2.164428 -0.10245497
C -0.3690869 1.3948591 0.06607594
O 1.725348 -0.4785765 -0.11152197
N -0.542026 0.013909095 0.033511117
C 0.4968245 -0.8598233 -0.056288928
N -1.3785554 2.156742 0.14553635
H -1.4906298 -0.32686344 0.073208824
H 0.6828643 1.6794752 0.015432109
H -0.31086734 -2.768001 -0.06368488
H 1.7675081 -1.7746359 -0.15486021
H -1.0756775 3.1273427 0.15504661
