12

O -0.19673372 0.29864350 1.15528101
C 0.12854454 -0.99472610 0.68795631
C -0.23750809 1.18678146 0.05284672
O 1.32495640 -1.46185859 1.17324728
C -0.53367136 0.24626421 -1.10734568
O 0.15043416 -0.93299903 -0.71514743
H -1.61008692 0.05225965 -1.20203167
H -0.63147370 -1.69969247 1.04581024
H 2.02902772 -0.89782100 0.82238765
H 0.72669080 1.69505030 -0.07483801
H -1.01957628 1.93169281 0.22903480
H -0.13060350 0.57640520 -2.06720169
