12

O -0.13609628 -0.59105134 1.8975346
C -0.7989194 -0.8285718 0.81021273
C 0.7669631 0.09875543 -0.8874116
O 0.6907819 -1.0605649 -0.063087694
C -0.29253602 1.0606803 -0.32843095
O -1.335471 0.16570757 0.05628052
H -0.69653094 1.7449858 -1.0737587
H 0.52790225 -0.19835383 -1.9137125
H 0.81722516 -0.780246 1.1045164
H -1.3886838 -1.7443204 0.704656
H 1.7758358 0.5219994 -0.8540203
H 0.06952936 1.6109797 0.5472214
