12

O -1.2623633 -0.65781265 1.2325585
C 0.12661342 -0.4851989 1.1839007
C 0.5851678 0.70383894 0.34483132
O 0.85409355 0.4054217 -1.0460109
C -0.1482747 0.025373884 -1.8266987
O -1.286369 -0.19052674 -1.4875678
H -1.5813547 -0.6344156 0.31571475
H 0.65877086 -1.3854833 0.83413994
H 0.45044607 -0.29731113 2.213965
H 1.5525272 1.0727777 0.69339794
H -0.16019891 1.5022044 0.40259078
H 0.21094175 -0.058868386 -2.860822
