12

O 1.5842118 -1.5499197 0.5975543
C 0.3037519 -1.1285169 0.33685607
C -0.3705114 1.0698539 0.4310302
O 0.19745716 -0.6418916 -0.97649336
C -0.6522481 0.49379238 -0.9499511
O -0.1305269 -0.096023664 1.1984609
H 2.1839783 -0.8140315 0.408594
H -1.7023629 0.19013764 -1.0515699
H 0.5123691 1.7216223 0.4247003
H -1.2169758 1.6101217 0.8659722
H -0.37501895 1.1520119 -1.7761904
H -0.33412406 -2.0071564 0.49103656
