10

O 0.990624 0.5049143 -1.7967588
C 0.38203135 0.18319099 -0.6564012
C 1.1479409 -0.2794256 0.4340128
N 0.563928 -0.6039887 1.5660088
N -0.7592048 -0.49345592 1.6796046
C -1.4271144 -0.05297017 0.6290885
N -0.9215272 0.30077457 -0.5627745
H 0.302849 0.79462457 -2.417769
H 2.2257867 -0.38077196 0.37685117
H -2.5053139 0.027108002 0.74813735
