10

O 1.85928730 0.30728989 -1.47513371
C 0.90786048 0.15086963 -0.73870325
C -0.49980630 0.41849631 -1.07126625
N 0.04219722 -0.49614609 1.43547217
N -1.46756679 0.24726444 -0.24519636
C -1.14924430 -0.21617323 1.00894612
N 1.02842741 -0.30998144 0.55396761
H -0.71533227 0.78293527 -2.07155469
H 1.95637094 -0.52317564 0.89249827
H -1.96219403 -0.36137905 1.71096979
