11

C -0.20230731 0.28648093 1.397354
C -0.30075693 0.035340164 -0.06377788
O 0.28294125 -0.7014378 -2.1477711
C 0.71061915 -0.5088946 -0.95841056
O -1.3797796 0.31269524 -0.7191697
H 0.9963891 0.69005597 -0.65345514
H -1.0901169 -0.08229239 -1.6419855
H 1.5682468 -1.0373172 -0.5157072
H 0.82464373 0.16534352 1.7508447
H -0.56865954 1.2850024 1.6466049
H -0.8412199 -0.44497618 1.9054732
