10

O -2.4341686 0.5900046 0.15982261
C -0.38699585 -0.46961844 -0.14769065
C -1.1176594 0.60395545 0.36052933
O -0.89954233 -1.4066207 -0.7950421
C 1.071915 -0.30706966 -0.00903617
C 2.2985058 -0.5433917 0.1305497
H 3.3538048 -0.46478343 -0.026126718
H 1.41859 0.7690139 -0.21255548
H -0.72927123 1.4207848 0.9545196
H -2.5751784 -0.19227478 -0.41497022
