10

O -0.20946431 1.1533657 1.528329
C 1.7239363 -1.1663071 -0.44658723
C -0.20208627 0.38065025 0.40964752
O -2.3623905 1.1506276 -0.041584842
C 0.78876626 -0.38201323 0.0195225
C -1.4419234 0.44524732 -0.39812282
H -1.0800744 1.5878232 1.5275432
H 2.4779184 -0.79453504 -1.1368337
H 1.785078 -2.2099447 -0.14676978
H -1.4797604 -0.16491418 -1.3151438
