10

O -1.78840645 1.77613329 0.74398567
C -1.01502074 1.18542930 0.01949710
C -0.23855992 0.03800311 0.54331344
O -0.47458026 -0.26205065 1.84824792
C 0.59552298 -0.59555989 -0.24316319
C 1.40361902 -1.16513641 -1.09726011
H -1.13654705 0.38878086 2.13968261
H 2.43182376 -0.82855687 -1.20974518
H -0.85458238 1.46496444 -1.03443639
H 1.07673123 -2.00200752 -1.71012174
