11

C 0.14975251 -1.0776503 -0.9688479
C -0.096714534 0.14164975 -0.19660324
C 0.5590095 0.42561334 1.1294438
O 0.7261719 0.17430274 -1.333482
C -2.3828137 1.330334 -0.42567682
N -1.3482168 0.7766767 -0.35933277
H 1.5138615 -0.102341585 1.1857558
H 0.7400072 1.4974109 1.2390734
H -0.08387392 0.09456628 1.9505113
H 0.8472907 -1.8185314 -0.5796854
H -0.62447435 -1.4420301 -1.6411562
