11

C -0.5195305 1.1353458 0.4792931
C -0.1280251 -0.2315366 -0.030326284
C 1.2604879 -0.7132161 0.028482795
O 0.28078565 -1.1806043 0.94027203
C -0.9890781 -0.7743714 -1.0805143
N -1.6793722 -1.1703238 -1.9183044
H -1.5249485 1.1096908 0.9099685
H 0.18380867 1.4527516 1.2528328
H -0.51048744 1.8664535 -0.33375072
H 1.611778 -1.4448715 -0.6956822
H 2.014582 -0.049317934 0.44772893
