10

O 1.91826 0.40002188 1.0852175
C -0.26426688 -0.9708296 -0.7664504
C -0.44404948 -0.13733599 0.49093276
O -0.826938 1.4961004 0.11150316
C 1.0435959 -0.19567262 0.5322
O 1.1429598 -1.1763004 -0.41542804
H -0.81134677 -1.9160177 -0.78279525
H -0.3416309 -0.43879002 -1.7141074
H -1.318048 0.9761827 0.8937977
H -0.09853582 1.9626415 0.5651301
