10

O -1.00154837 -1.68435267 -1.07166048
C -0.59469230 -0.78127942 -0.42457714
C -0.21378866 1.21689605 0.40260302
O 1.63843310 -0.55275887 0.39128607
C 0.60470474 0.10550818 -0.30374581
O -1.50034995 -0.04896539 0.44878462
H 0.93558116 0.40606737 -1.30703025
H -2.32568486 0.19153341 0.00267195
H 2.40752786 0.02756421 0.39187943
H 0.04981712 1.11978698 1.46978865
