10

O 1.3683192 1.0949506 -0.2681343
C -0.6645199 0.30326098 1.074745
C -0.01728608 -0.79955834 -0.71044344
O 0.00381408 -1.4517483 -1.6973543
C 0.038704082 0.6290077 -0.26816535
O -0.41471627 -1.406624 0.5516108
H -0.59080034 1.238294 -0.9306524
H 1.3514332 2.03044 -0.038229056
H 0.15020585 0.2922161 1.8189918
H -1.2251537 -1.9302388 0.46763098
