11

C 0.32558396 0.53906584 0.12341525
C 1.7330498 0.019717578 -0.042186636
C -0.7956682 -0.36950564 -0.34218016
C -0.0025756306 1.7368777 0.52943736
O -0.5930391 -1.229209 -1.1751893
N -1.9974841 -0.14182678 0.2451634
H 1.827189 -0.36886555 -1.0612384
H 2.4735532 0.8005467 0.1314067
H -2.095159 0.51446354 1.0009964
H 1.9115475 -0.8097426 0.6516149
H -2.7869976 -0.6915219 -0.06123939
