11

C -0.73041683 -0.16868705 -2.31493
C -0.16232681 -0.12126308 -0.97006154
C 0.3203812 -0.088128 0.13378504
C 0.9783418 -0.10066365 1.4393318
O 2.0862548 -0.5666719 1.6110051
N 0.24247734 0.46808487 2.4385
H 0.008915776 0.15436459 -3.053984
H -1.6064632 0.47951552 -2.3988757
H -1.0317538 -1.1903871 -2.5624485
H 0.6113412 0.39897856 3.3751514
H -0.71675134 0.73485744 2.302526
