11

C -0.6410624 -0.45474732 1.2136292
C 0.84058994 -0.17955948 -0.97123075
O -0.8106208 1.2740757 -0.47507825
C -0.22951746 0.20360778 -0.05517916
O 0.8735953 0.54139143 -2.035234
H 1.3388178 0.3305799 0.059841752
H 0.054378852 -1.2530192 1.4852344
H 1.2372465 -1.2058189 -0.90780985
H -0.71619856 0.27179277 2.0266924
H -0.312896 1.3609619 -1.3979877
H -1.6343334 -0.8892645 1.0571216
