11

C -0.4082801 0.9172463 -1.1524621
C -0.073014215 -0.33344263 -0.37837097
O -0.059931953 -1.4387654 -0.8790287
C 0.279185 -0.18568979 1.092929
O 0.6536615 -1.4036628 1.6514473
H 0.5195364 1.3396801 -1.5545298
H -0.8687977 1.6810852 -0.51609766
H -1.0658731 0.6796725 -1.9910258
H -0.6011641 0.23994124 1.6032163
H 1.0851232 0.55963665 1.1848233
H 0.5395553 -2.0557013 0.9390995
