10

O -1.44593132 1.20607724 0.57346380
C -0.71219320 0.23145432 -0.08306497
C 1.34181067 -0.28547588 -0.72325025
C 0.32967132 0.61822771 -1.06640855
N 1.10913224 -1.04356801 0.37948175
N -0.03497135 -0.69768351 0.85465472
H -0.44538189 -1.23516346 1.60699946
H 2.30731782 -0.40700316 -1.20064218
H -1.38185031 -0.44220735 -0.65487622
H -1.06760399 2.05534212 0.31364251
