10

O -0.5632384 -0.90061677 -1.6988642
C 1.114366 0.43944162 -0.34920943
C -0.04985478 -0.41382736 -0.53287244
C 0.7646191 0.97130126 0.9346643
N -1.004186 -0.11341528 0.48115245
N -0.45129493 0.64946944 1.3927102
H 0.0044145617 -0.5646177 -2.4053655
H 0.7018503 -1.1328744 -0.026183551
H -1.8900537 -0.5626269 0.6590486
H 1.373378 1.627766 1.5449191
