12

C -0.05835725 -1.8251014 1.1284088
C -0.4326968 1.6404006 -0.18338053
N 0.06486666 0.56998307 -1.5636587
N 0.3810436 -1.0172088 0.09273323
C -0.4560968 -0.10263335 -0.53585315
O 0.6066886 -2.7057037 1.6172472
H 1.3167404 -1.2232419 -0.24539728
H 0.38095605 2.3337598 -0.41638798
H -1.3914135 2.0286663 -0.50641876
H -0.40534598 1.4713753 0.898881
H -1.0804925 -1.5589337 1.4397814
H 1.0741076 0.38863808 -1.7259552
