12

C -1.9515862 -1.0188994 -0.40167376
C 2.3019378 0.79540074 0.92111313
N -0.8015361 -0.13287903 -0.47923717
N 1.1719034 0.7241432 0.11913436
C 0.20173293 -0.21341087 0.37792352
O 3.1927652 1.5901855 0.7410317
H -2.0601563 -1.589973 -1.3285887
H -1.7857149 -1.7028886 0.42966923
H -0.827619 0.546166 -1.2386953
H -2.867928 -0.44706187 -0.22415006
H 2.2706616 0.042657617 1.7251518
H 1.15554 1.4065598 -0.6416789
