10

O 0.48426714 0.06978658 1.80531420
C 0.10257887 -0.15379762 0.52294223
C -1.11513628 0.34068885 -0.22491699
C -0.33594910 0.43876392 -1.30605478
N 0.64228924 -1.30743784 -0.14647973
N 0.93740372 0.11508421 -0.64322217
H 0.39617441 1.01037581 1.99842704
H 1.49995580 -1.54488444 0.36148095
H -0.44533674 0.60496348 -2.36980480
H -2.16624694 0.42645712 0.00231448
