10

O 0.0212859 0.32439715 2.0195112
C -0.025759397 0.1190728 0.68912274
C 0.8907941 -0.28800043 -0.25428244
C 0.14529145 -0.28095093 -1.4596252
N -1.107857 0.09317985 -1.2789798
N -1.1927599 0.334968 0.04857226
H 0.9148531 0.1409012 2.3349476
H 1.9277663 -0.54656243 -0.10083964
H 0.48824328 -0.53778636 -2.453288
H -2.0618577 0.6407812 0.4548617
