10

O -1.800574 0.2004298 -1.1100997
C 0.35576275 0.8398148 0.10244715
C -0.69921005 -0.08604207 -0.41213635
C 0.89834845 -0.5229026 0.6122844
N -0.2661461 -1.2203635 -0.0026144832
H 0.036415916 1.5505334 0.8685039
H -2.265732 -0.63157344 -1.2812583
H 0.9292729 -0.63600737 1.6993734
H 0.96067363 1.344617 -0.6550764
H 1.851188 -0.83850604 0.17857616
