11

C -0.49679127 1.4978229 0.6717202
C -0.17649199 -0.84646076 -0.5561497
C -0.2505245 -1.1313343 1.3331972
C -0.2694756 0.0407825 0.83317757
O -1.1237376 -0.8277101 -1.2985175
N 1.0873662 -1.2095544 -0.91669506
H 1.7385147 -1.4354997 -0.18322104
H 0.33292466 1.974839 0.14349818
H 1.1703558 -1.685566 -1.8004851
H -1.4216206 1.6689664 0.11160979
H -0.59051985 1.9537144 1.6618655
