14

C 2.06319851 -0.65820044 -1.24750500
N 0.38539290 -1.07623162 0.73054175
C 0.11163614 -0.12769798 -0.07176553
O 0.92358256 0.17751159 -1.09607494
N -0.98221290 0.71672313 -0.10180165
C -1.90749018 0.78012808 1.00454587
H 2.58491222 -0.27591690 -2.12483730
H 2.70773611 -0.60592858 -0.36675185
H -0.83833975 1.55768759 -0.63953062
H 1.76338624 -1.69814572 -1.40564700
H -0.30619570 -1.16653671 1.46308557
H -2.32961714 -0.21304446 1.18756487
H -2.73273621 1.44427461 0.73748521
H -1.44325258 1.14537763 1.93069100
