14

C 2.12154 -0.16698411 -1.1970901
N 1.1210251 -0.5410234 -0.21400727
C -0.035192892 0.20717177 -0.11944214
O -0.1916103 1.2708836 -0.6916394
N -0.99958307 -0.3693666 0.6886614
C -2.1545548 0.42495182 1.0652095
H 1.8420637 -0.45058978 -2.2199647
H 3.0716045 -0.64239085 -0.94154704
H 2.2511206 0.9152911 -1.1687839
H 1.0203214 -1.5333445 -0.05161634
H -0.6540964 -0.9989041 1.4001925
H -2.9285045 -0.23497163 1.4629625
H -1.9219449 1.1951737 1.8116401
H -2.5421882 0.9241032 0.17542528
