10

C 0.95345855 -1.7480712 0.3004627
N 1.6304326 -0.6504483 0.8597504
N 0.97345114 0.4854552 0.5811232
C -1.1946911 0.95694935 -0.3308378
N -0.083854586 0.06325061 -0.03138879
N -0.14561543 -1.2347543 -0.29874521
H -1.9652474 0.816888 0.42794272
H 2.2325437 -1.3563081 0.11689251
H -0.8189998 1.9788634 -0.3135989
H -1.5814776 0.6881752 -1.3116007
