9

O 0.75434685 0.24700019 -2.0783694
C 0.26624078 0.10881112 -0.8359952
N 0.9904493 -0.31556755 0.17797798
N 0.07610568 -0.28306425 1.18266
C -1.1049705 0.1471049 0.7210823
N -1.0269793 0.40899178 -0.56856805
H 1.6848667 -0.009912472 -2.0553164
H 0.34335285 -0.5596089 2.113194
H -1.9834124 0.25624508 1.3433348
