9

O 1.3229569 -1.8443795 -0.50207317
C 0.652425 -0.73395026 -0.077705845
N -0.3628745 -0.35835466 -0.9025779
N 1.0299575 -0.174289 0.9928122
C -0.9957231 0.71890014 -0.38424397
N -0.626004 1.2732635 0.709267
H -1.8441343 1.0778414 -0.9736514
H 2.0162592 -2.0266361 0.14475168
H -1.1928626 2.067604 0.9934215
