9

O -0.94054907 -0.07178426 1.54786981
C -0.48894456 0.31324803 -0.79764493
N 2.24104846 -0.82570678 0.88462246
N 1.17544498 -0.48740786 0.71632342
C -0.04866227 -0.09843539 0.52032554
N 0.30546982 0.31371895 -1.79473239
H -0.17865233 0.62540548 -2.63125793
H -0.51863059 -0.37326962 2.36374538
H -1.54652448 0.60423134 -0.80925134
