10

O 0.48358846 -0.69618183 -2.4323356
C -0.6529115 -0.48186675 -0.11531806
N 0.9286885 0.8257404 1.0820388
C -0.15073113 -0.2993261 -1.504648
C 0.30805704 -0.27585083 1.0022702
N -0.88302565 0.70691735 -1.0035874
H -1.5328789 -1.0872585 0.09259374
H -0.4745859 1.5860553 -0.6978512
H 0.4037196 -1.114203 1.703666
H 1.5700794 0.83597386 1.8731713
