10

O 2.361871 -0.39642528 0.2764506
C 1.1725909 -0.1965976 0.13658579
N 0.33067268 0.57408303 0.9234631
C -0.97305834 0.55245245 0.43492457
C -0.97514856 -0.22612002 -0.6625731
N 0.32463226 -0.6822269 -0.84749985
H 0.66184926 1.062256 1.7375348
H -1.775942 1.0918626 0.91150177
H -1.7800467 -0.49521348 -1.3274385
H 0.65257984 -1.2840706 -1.5829489
