10

O 1.28323 1.7720336 0.56298745
C -0.31834874 0.371284 -0.7456902
C -0.77427113 -0.8977399 -0.4687136
C 0.5579679 0.6539133 0.3317537
N 0.64007217 -0.33806828 1.1924132
N -0.18268573 -1.2766204 0.68145686
H 1.1151673 2.403383 -0.14647254
H -0.28890556 -2.1447875 1.1791089
H -1.4612863 -1.541974 -0.9979352
H -0.57093966 0.99857605 -1.5889087
