10

O 0.019926665 0.32211435 2.021319
C -0.024947204 0.11920479 0.6886872
C 0.89099675 -0.28625137 -0.25495324
C 0.14548133 -0.27812418 -1.4600695
N -1.1063161 0.09457773 -1.2782212
N -1.1919129 0.33419308 0.047611274
H 0.9126351 0.13455239 2.3379698
H 1.9279706 -0.5456515 -0.1017174
H 0.48760697 -0.5328041 -2.4542243
H -2.0614412 0.63818884 0.4535984
