10

O 0.3572723 1.1296492 -1.7910807
C -0.12837718 -0.8435452 1.0852484
C 0.7269792 -0.5052007 0.042669985
C -0.00084368425 0.41924283 -0.70781064
N -1.3286823 -0.26966253 0.9415958
N -1.243516 0.56609106 -0.23784791
H 1.7275195 -0.8735789 -0.14582789
H -1.4321296 0.9682294 0.90745616
H 1.2685444 0.91284496 -2.0178666
H 0.053233594 -1.50407 1.9234636
