11

C 0.81900853 -0.23616719 1.09759036
C -0.44633616 -0.57516620 0.35663835
N 0.73721873 1.81815700 -2.04879329
C 0.04339446 1.04775123 -1.53923458
C -0.82111891 0.05336003 -0.92292556
O -1.44896154 0.42725914 0.29088026
H -0.84574962 -1.57883822 0.51831468
H 0.64286570 -0.28314327 2.17667038
H 1.60742770 -0.95256685 0.84927019
H 1.16156329 0.77097933 0.84707584
H -1.44931207 -0.49162496 -1.62548648
