11

C 0.7936891 0.847146 1.0237019
C -0.34358016 -1.6477193 -0.47685054
N 0.041157614 -2.4557197 0.29028508
C -0.29950988 0.62989753 0.049809054
C -0.70600504 -0.70300066 -1.4386212
O -0.048497126 0.5446408 -1.252736
H 0.48972875 0.5579239 2.0302997
H -1.3294578 -0.7927677 -2.3130457
H 1.0562086 1.9149083 1.0389327
H 1.680501 0.27924517 0.72696066
H -1.334235 0.8254456 0.32126436
