12

C -0.843431 0.43447527 1.3838853
C 1.1916245 -0.41726163 -1.6698133
O -0.98281825 -0.08232461 -1.360101
N 0.20759274 -0.043275397 0.6017227
C 0.13983583 -0.19964318 -0.73193955
N -0.69755435 0.5133453 2.6380124
H -1.722968 0.69617575 0.79184216
H 2.201957 -0.09014879 -1.4263352
H -1.5410666 0.8850622 3.066522
H -0.17173216 -0.010166907 -2.2684863
H 1.0673068 -0.27125466 1.081823
H 1.1512533 -1.4149833 -2.1071322
