12

C 0.92379978 -0.15048680 -1.87490406
C 0.10475125 -0.50244468 -0.87257226
O -0.71517887 -1.55979473 -0.84666168
N 0.00363852 0.23853627 0.30974116
C -0.80024080 -0.09213505 1.35019150
N -0.69781709 0.78687847 2.34821938
H -0.60014566 -2.05092280 -1.66844176
H 0.98415160 -0.74005574 -2.78075511
H 1.54102170 0.74053849 -1.80640616
H 0.59921453 1.06822400 0.31968701
H -1.24871029 0.65641749 3.17862318
H -0.09448465 1.60524500 2.34327831
