12

C 0.5559734 -0.6469667 -1.8494939
C -0.08074787 -0.7413682 -0.48014864
O -0.60555255 -1.7455311 -0.050507143
N 0.009825059 0.4194991 0.2699369
C -0.4732006 0.5394703 1.5651411
N -0.34333405 1.6418946 2.1768389
H 0.13329232 -1.424932 -2.4845433
H 0.40012726 0.33376688 -2.3108854
H 1.6355195 -0.8185278 -1.7603763
H 0.44799355 1.2456709 -0.116705894
H -0.936214 -0.37808925 1.9326054
H -0.743682 1.5751132 3.1081378
