12

C -0.6876781 1.3026195 -1.4905028
C -0.38134927 0.12323131 -0.92961955
O -0.5286237 -1.0857575 -1.4842385
N 0.14111224 0.020252459 0.36404613
C 0.47673997 -1.1505342 0.9596257
N 0.951898 -0.9563669 2.1907792
H 1.0568413 -0.04916034 2.6376812
H 0.24789639 0.9225814 0.8305127
H -0.8715324 -0.96800506 -2.3777204
H -1.0914999 1.3566116 -2.493405
H -0.5464173 2.2332816 -0.9487516
H 1.2326127 -1.7487539 2.7415931
