10

O 2.057865 -1.014831 0.67273015
C 1.0207667 -0.6765738 0.1736352
C 0.5701643 0.6713146 -0.20951231
O 0.55601585 1.5973556 0.7495605
C -1.0521184 -0.63775504 -0.27366567
O 0.028957348 -1.5199443 -0.2574501
H -0.49396122 0.44722825 -0.8317833
H 0.5843705 2.4715996 0.3383035
H -1.5040452 -0.44976577 0.6980394
H -1.7680146 -0.8886283 -1.0598574
