10

O 2.37694994 -0.08164441 -0.26309986
C 1.17675542 -0.13433849 -0.13712509
C 0.31873703 0.31592826 -1.28746438
O 0.16545738 1.61244378 -1.19790547
C -0.82614850 -0.71945782 0.96986177
O 0.60012808 -0.74041490 0.90221653
H -1.08404351 -1.35069665 1.82041371
H -1.19033882 0.29912766 1.14000235
H -1.26230648 -1.12746934 0.05551024
H -0.27519043 1.92652194 -2.00240973
