10

C -1.2008513 0.85938793 0.0645742
N 0.06625998 -0.99384576 1.0054636
N 1.0708631 0.11524887 -0.601324
C 1.9146043 -0.88881403 -0.16344069
N 1.2025511 -1.577675 0.81380856
N -0.061617304 -0.036607657 0.11850335
H -0.89827365 1.8653647 0.36282286
H 1.4528468 -0.69328624 -1.4005771
H -1.9518772 0.47270232 0.75269735
H -1.5945059 0.87752503 -0.95252824
