10

C -0.6930957 0.5335933 1.3515804
N 1.4334884 -1.0582548 -1.0263596
N -0.36975893 0.24027202 -1.1012467
C 0.0062928055 0.002003148 0.14833279
N 0.5450925 -0.43901616 -1.7687016
N 1.1114844 -0.79045683 0.20349911
H -1.5480267 1.1371081 1.0431666
H -0.011832049 1.1484557 1.9454435
H 0.5683287 -0.48472384 -2.7786338
H -1.0419735 -0.2889805 1.9829199
