9

N 0.5380657 -0.34607083 -0.79978734
C -0.1567446 0.09636551 1.495379
C -0.89939207 0.20219357 -1.0047166
C -0.03423443 0.6314712 0.14349252
N -0.31208086 -0.32228512 2.5611396
H 1.2347327 -0.010027842 -1.4541866
H 0.4245966 1.6189377 0.11820011
H 0.75200313 -1.2594565 -0.4077717
H -1.5469462 -0.6111276 -0.6517487
