9

N -0.28458914 -0.7319449 0.8456069
C 0.16860612 0.5498193 0.3009297
C 1.3084757 0.41787872 -0.60070586
C -1.2082046 0.34838 -0.22720264
N 2.1986496 0.32205945 -1.3325707
H 0.013225974 -1.5226704 0.27967536
H -1.3948967 -0.52387726 0.8631344
H -1.1389819 -0.16619396 -1.1962547
H 0.33771467 1.3065491 1.0673878
