10

N 0.6089219 -1.1134522 0.05618529
C -0.15528895 -0.2117959 -0.54263806
N -0.9344042 -0.8722563 -1.3687338
O 0.8512126 1.5440301 2.1625183
C 0.63659096 0.7604636 1.2856804
O 0.9596344 -0.5600492 1.3223566
N 0.0021774645 1.0016944 0.050354306
H -0.5735346 1.8143009 -0.08262374
H -0.21654528 -1.8633916 -0.60747135
H -1.1787642 -0.4995439 -2.2756283
