11

N -0.06797395 -1.6403553 0.12825513
C 0.20595106 -0.5767582 0.93002594
O 0.7901942 -0.62665665 1.9923732
C -0.24833877 0.7450965 0.36098242
C 0.25619647 1.1950395 -0.9402298
O -1.0681916 0.69691235 -0.80153084
H -0.7316979 -1.5244843 -0.6228048
H 0.12592614 -2.5639453 0.48486212
H -0.5271387 1.484179 1.1083279
H 0.3335964 2.262456 -1.1409407
H 0.9314766 0.54851675 -1.499321
