11

N -0.23993696 -1.56295533 0.11759130
C 0.19949635 -0.53301242 0.88840341
O 0.73297067 -0.66823308 1.97219917
C 0.07112923 0.84528497 0.28504757
C 0.93420574 1.30218546 -0.84358868
O -0.81325999 0.85222388 -0.89059375
H -0.70852764 -1.40993542 -0.75703981
H -0.09740158 -2.50041630 0.45843336
H -0.22327241 1.56631330 1.04791859
H -1.17080464 1.74617977 -0.98625681
H 1.31540118 0.36236552 -1.29211476
