10

O 0.33312887 -0.5092357 -2.2352123
C 0.14877976 -0.324576 -1.0675657
C -0.9091367 0.48199946 -0.26467487
C 0.009340573 0.2687118 0.9391415
O 0.074342385 -1.1284736 1.1365633
C 0.97533244 -0.5530176 0.18866394
H -1.9087099 0.05573109 -0.1706044
H -0.96572596 1.5115812 -0.6341643
H 0.20613047 0.9226551 1.7807001
H 2.036518 -0.7253757 0.3271524
