11

N 1.3674076 -0.66999745 2.5929444
C 0.6582049 -0.67533666 1.681649
C -0.24380796 -0.6528403 0.5151173
C -0.531936 0.742308 -0.07354088
C 0.24322478 0.21946321 -1.2921313
O 0.408454 -1.0757614 -0.6843269
H -1.1224064 -1.2635643 0.7467512
H -1.5923338 0.9327748 -0.24210192
H -0.081318215 1.5799601 0.46000797
H -0.31473738 0.15934674 -2.2294948
H 1.2092482 0.7036477 -1.4748735
