11

N 1.03224075 0.62642943 -0.53626791
C 0.80984422 -0.65550173 0.17170887
C -0.68076851 -0.59769453 0.39434090
C -1.14725474 0.65760468 -0.22759400
C 0.01687520 1.41322412 -0.81410778
O -1.04533246 0.50492242 1.19806750
H -1.28356020 -1.49707130 0.48963768
H -2.15934613 0.79611301 -0.59684084
H 1.37258090 -0.68091658 1.10911143
H 1.10739668 -1.50126725 -0.45604319
H 1.97732418 0.93415781 -0.73201236
