10

O -2.1137352 0.54566824 0.9888001
C -1.0473702 0.2718202 0.47644642
C 1.3915921 -0.36398083 -0.5635419
N 0.4152013 0.03490882 -1.4507412
N 0.04641697 -0.14676875 1.1968107
C -0.7328546 0.33021486 -0.9609941
N 1.25726 -0.4680832 0.7179829
H -0.049709924 -0.23132835 2.198061
H -1.5305452 0.64237577 -1.6300918
H 2.3637447 -0.61482674 -0.9727324
