13

C 0.81596154 -0.36004204 -0.3968625
C -0.16392988 0.7667519 -0.28326154
N 2.102517 -0.36075616 -0.5683438
O 0.4601299 -1.6043519 -0.34095407
C -1.2247527 0.46901628 0.78202546
O -2.064045 -0.6003308 0.43181017
H 0.37313673 1.6964668 -0.06729079
H -0.7263585 0.2953074 1.7489266
H -1.4926424 -1.3593303 0.2523968
H 1.7699465 -1.6314619 -0.5472574
H -1.8651092 1.3479987 0.8988703
H 2.6776989 0.4631525 -0.65669465
H -0.66255254 0.8775799 -1.2533644
