10

N 0.1552113 -1.8969418 -0.68165565
C -0.48800766 -0.16424437 0.9409553
C 0.111703016 -0.681091 -0.35321492
O -0.30013287 1.2614028 0.8386701
C 0.3116922 1.4475981 -0.34142655
N 0.58876 0.44368297 -1.0840088
H 0.53135675 2.4832442 -0.5802621
H 0.039075777 -0.5278359 1.8257943
H -1.5550433 -0.37484246 1.0249997
H 0.60538495 -1.9909724 -1.5898516
