10

C -1.14551620 -0.14763812 -0.06722302
C 0.04391278 -0.70879677 -0.75436118
N 1.22336094 -0.34896419 -0.43692706
C 2.34603538 -0.10826831 0.00553873
C -1.04929547 0.59258927 1.17171145
N -1.21207210 1.35906395 0.19068074
H -2.08691250 -0.61160493 -0.35348912
H -0.07987359 -1.43649188 -1.54908800
H 2.85286434 0.75210898 -0.44711634
H -0.89250334 0.65800165 2.24027361
