10

C -1.2210448 -0.37977785 -0.34980756
C -0.09176574 -0.8140833 -1.042648
N 1.136219 -0.436779 -0.697046
C 1.2206395 0.38067427 0.3496761
C 0.0923738 0.8132334 1.0432667
N -1.1374007 0.43698484 0.6977713
H -2.216041 -0.7005022 -0.64910585
H -0.1835036 -1.4819893 -1.8957434
H 2.2163386 0.7008686 0.64728343
H 0.18418518 1.4813702 1.8963531
