13

C -0.99691996 -0.77943325 -1.47370982
N -0.17508063 -0.81893431 -0.26797845
C 0.53300980 0.31025789 0.07743183
O 1.14580201 0.90053053 -0.98673430
C 0.64600478 0.75000949 1.33632607
O -0.13308565 0.18605392 2.33743749
H -1.38680908 -1.78493584 -1.65295747
H -0.37788114 -0.49604813 -2.32625690
H 1.30063710 1.57300921 1.61449079
H 0.44812622 -0.34810061 2.89506542
H -1.84115594 -0.07568494 -1.39941050
H 1.51800875 1.74068090 -0.69467840
H -0.68065620 -1.15740417 0.54097400
