13

C 0.8886657 1.7683741 0.59206074
N 0.16089913 0.7655672 -0.16748586
C -0.21018213 -0.40284863 0.33102298
O -0.0955291 -0.71363664 1.583136
C -0.6429154 -1.5718411 -0.39517596
O -0.3510937 -1.5909275 -1.773543
H 0.067761764 0.84335476 -1.1707197
H -0.17112155 -1.8163886 1.0708901
H 1.7526608 2.11477 0.0191744
H 1.2217437 1.3065125 1.5211304
H -1.6935891 -1.7856778 -0.16143715
H 0.24372363 2.619933 0.82806176
H -1.1710235 -1.5371913 -2.2771144
