13

C -1.539288 0.25476074 -1.1570979
N -0.45617485 -0.5125866 -0.5497987
C 0.596404 0.17468749 0.011901768
O 0.5785976 -1.14882 1.9650393
C 1.1695454 -0.17709611 1.168933
O 1.0235223 1.2152678 -0.75695986
H 2.0718126 0.29918703 1.5461808
H -2.218936 -0.44627348 -1.648838
H 1.1263261 -1.9433775 1.9126078
H 1.673864 1.717888 -0.2528609
H -1.1299152 0.92306405 -1.916135
H -2.107876 0.8531822 -0.42763516
H -0.78788143 -1.2098838 0.10466286
