10

N -0.24517669 1.0604975 0.24431577
C -0.27213442 -0.3283974 -0.12725161
C 1.0558329 -0.83651835 -0.4127905
O 1.7911041 0.33279857 -0.30656886
C 0.98666084 1.3477651 0.10381084
N -1.381142 -1.1272813 0.18503356
H -2.1763456 -0.5614254 0.4509217
H -0.058664344 -0.3934488 -1.3065523
H -1.1669394 -1.8001894 0.9080922
H 1.4668044 2.3061993 0.26098922
