10

N -0.69644960 0.08604348 -0.84498783
C 0.26319402 0.44772211 -1.56070410
C 1.44186500 -0.30501889 0.21460645
O 1.55714125 0.23086132 -0.98341434
C -0.06298963 -0.49584801 0.36768631
N -0.57849520 -0.04226174 1.62589232
H 0.27312311 0.90773740 -2.53941927
H -0.40196773 0.94649417 1.74964330
H -0.21554868 -1.58687773 0.30493688
H -1.57987266 -0.18885219 1.66575983
