10

N -0.56764305 1.16419 -1.2874236
C -0.15663859 0.2485356 -0.3260098
C 0.685885 -0.81384254 -0.3962874
O 0.6907799 -1.4127586 0.8442515
C -0.14908259 -0.6726256 1.5745684
N -0.6834163 0.32422236 0.9534897
H 0.14715883 1.4170653 -1.9540602
H -0.972132 1.985808 -0.85734636
H 1.304064 -1.2681202 -1.1538237
H -0.29897532 -0.9724744 2.602641
