10

N -0.3244789 0.1343475 1.6901577
C 0.0092590265 0.27075204 -1.6223843
C 1.4671254 -0.25515458 0.022504669
O 1.3820919 0.1421947 -1.2307283
C 0.00990674 -0.45156607 0.42545995
N -0.8185981 -0.022295555 -0.73201764
H -1.3028682 -0.022907028 1.8995864
H -0.11379411 -1.5449475 0.50775665
H -0.1441827 0.6160845 -2.6356943
H -0.16446078 1.133492 1.6753596
