10

O 1.2243323 -0.7823196 -0.4300016
C 0.5375685 -0.44152105 0.7674747
O -0.94942486 -0.5668992 -1.0349331
C -0.9233797 -0.29778168 0.36164808
C 0.017003419 0.8643477 0.24460107
C 0.31286025 0.112733416 -1.086719
H -1.8094432 -0.48032504 0.9552703
H 0.61988544 0.44851637 -2.0738237
H 0.024603521 1.8935343 0.5757534
H 0.94599426 -0.7502852 1.7207298
