10

O -0.41500496 -0.39480143 -1.40205973
C -0.42623055 0.61788103 0.49372698
O 1.49505225 -0.00267422 -0.24642746
C 0.56826113 -0.48197284 0.71952735
C -0.71507220 -0.74668400 -0.05681630
C 0.37211803 0.66592912 -0.84238655
H 0.93546548 -0.98089702 1.60670141
H -1.48443618 -1.48108151 0.14207390
H -0.95036751 1.33212476 1.11346967
H 0.62021435 1.47217616 -1.52780926
