12

N -0.45501187 -0.45218816 1.9153448
C -0.14033303 -0.13287002 0.59970295
C -0.92609626 0.7233479 -0.17426161
N -0.5954588 1.0809723 -1.4122883
C 0.5379911 0.5787955 -1.8941914
N 1.3661556 -0.24901707 -1.2562118
C 1.0205727 -0.59794784 -0.02321016
H -1.432439 -0.3852661 2.1585476
H -0.03541848 -1.3005749 2.266445
H -1.8516128 1.1377723 0.2210005
H 0.81768876 0.8713285 -2.9027352
H 1.6939622 -1.2743527 0.5018576
