17

C -2.4810493 -0.926985 0.59736985
N -1.322823 -0.42408285 -0.11689786
C -0.26489073 0.070425816 0.6240713
O -0.34623867 0.21468072 1.8369005
N 0.8552721 0.4246798 -0.09398828
C 2.0682764 0.7599154 0.62567025
C 0.93465346 0.3503743 -1.5386702
H -2.2664127 -1.8335924 1.1782452
H -2.8325915 -0.16312088 1.2947924
H -3.2772443 -1.1399602 -0.12041745
H -1.0919149 -0.9268666 -0.95945036
H 2.852776 0.008520035 0.45966423
H 1.8330934 0.8017619 1.688989
H 2.4517415 1.7348086 0.3021443
H -0.02017689 0.63973975 -1.9880196
H 1.6928785 1.0585796 -1.8869467
H 1.2146515 -0.648878 -1.9034568
