17

C -1.36476790 0.22165485 0.64820042
N 0.11639933 -0.88496476 -1.48769050
C 0.22911169 -2.31316564 -0.85857363
O 1.85039466 0.55340489 -1.00104922
N -0.03418647 0.70261875 0.30249914
C 0.58458951 1.66220024 1.20351122
C 0.72581786 0.21389917 -0.70335198
H -1.32081128 -0.60991136 1.36241600
H -1.93101603 1.04705920 1.08783570
H -1.91683064 -0.11778127 -0.23695809
H -0.21674889 -2.15109574 0.13857295
H 1.31332838 -2.38977673 -0.68748606
H 0.58199659 1.26293262 2.22544379
H 1.60910062 1.84165851 0.88046135
H -0.87316568 -0.73861642 -1.69308089
H 0.02432773 2.60170927 1.18847394
H 0.62246137 -0.90182560 -2.36922438
