17

C 0.31754735 1.6027417 1.3723981
N -0.07390414 0.7001403 0.3011467
C 0.3144065 -2.3149185 -0.8262426
O 2.094816 0.42672807 -0.40244967
N 0.4862938 -0.87600577 -1.4163568
C -1.4765289 0.31427994 0.23016691
C 0.9122256 0.16736305 -0.45508504
H -0.39135405 -2.1307814 0.0028262595
H -1.7674229 0.025093691 -0.78730434
H 1.2254481 -0.9209018 -2.1128626
H 1.4013547 1.7100691 1.3667449
H -0.3880029 -0.6556227 -1.8958133
H -1.6989022 -0.5254597 0.90018624
H -2.0898738 1.1743865 0.51165086
H -0.14964269 2.5808053 1.2243384
H -0.010156411 1.1944108 2.3365784
H 1.2936957 -2.4723282 -0.34992245
