9

O 1.6815996 0.92979264 0.6064515
C 0.5634711 0.30779302 0.19670178
N 0.43112648 -0.24690756 -0.99667716
N -0.80809486 -0.7268997 -0.956513
N -1.4817226 -0.5305143 0.1544039
C -0.6265296 0.1362748 0.92562574
H 2.3223953 0.8954113 -0.115076825
H -1.204715 -1.2196538 -1.7400805
H -0.8775306 0.4547037 1.9251642
