9

O -0.6148534 -1.515032 -1.0265719
C 0.009860051 -0.15299164 0.91156846
N 0.3284644 1.2520329 0.99101347
N -0.06329003 0.7684999 -1.1050297
N 0.3206008 1.702089 -0.25109938
C -0.2463409 -0.37058288 -0.44079506
H 1.1892927 0.38204685 1.0980444
H -0.7125935 -1.332422 -1.9713653
H -0.21114014 -0.73364 1.7942349
