9

O -0.047353636 -1.1134344 1.4425988
C 0.2429228 -0.3339104 0.40982834
N 1.4205172 -0.078654796 -0.027115881
N 0.03442842 1.057245 -1.3668436
N 1.2355556 0.8029335 -1.1446185
C -0.79740524 0.36223173 -0.39727888
H 0.78508973 -1.4528749 1.8082145
H -1.4836682 -0.3221817 -0.90432096
H -1.3900868 1.078646 0.17953639
