9

O -2.92399138 0.60439629 0.63064805
C -1.84895766 0.11324029 0.82107181
C -0.65484838 0.43656035 -0.08666251
N 0.48013805 -0.26743940 0.35538454
C 1.50259052 -0.44568372 -0.32329869
N 2.48632435 -0.80026042 -0.92057158
O -0.71287828 1.19804646 -1.00891319
H -1.62922195 -0.59764890 1.63920687
H 3.30084479 -0.24121104 -1.10686547
