9

O -2.5746632 0.6755742 0.2960051
C -1.6307286 0.09648023 0.7632176
C -0.30066416 0.045003746 0.09471163
N 0.7616427 -0.5491714 0.5427423
C 1.6587523 -0.2787353 -0.4559407
N 1.1864913 0.42416528 -1.4399688
O -0.12768398 0.64684606 -1.0783253
H -1.6603445 -0.44589955 1.7249147
H 2.6871982 -0.61426336 -0.4473567
