11

N 1.3649403 -0.6641018 2.5958068
C 0.65858424 -0.67352676 1.6827815
C -0.24161129 -0.65381265 0.51554286
C -0.5315823 0.7421874 -0.07528154
C 0.24262291 0.21999861 -1.2910694
O 0.40829998 -1.0760981 -0.6834735
H -1.1183639 -1.2682151 0.74508464
H -1.5928677 0.93049 -0.24424309
H -0.08308677 1.5810977 0.45837697
H -0.316724 0.15940931 -2.2281804
H 1.2097884 0.7025715 -1.4753441
