11

N -0.51703084 1.7774926 0.31731245
C -0.6059934 0.36519423 0.4961016
C 0.94913137 -0.92472374 0.09909651
C -0.24380334 -0.4667597 -0.74748516
C -0.4452463 2.9381788 0.16049917
O 0.48886213 -0.15571569 1.2279706
H -0.0066758892 0.1251142 -1.6323384
H -0.9762791 -1.2381299 -0.9892029
H -1.5655777 0.15601118 0.9796657
H 1.9324453 -0.5839847 -0.2428624
H 0.99016786 -1.9926776 0.33124283
