12

O 0.8737139 1.96869 -1.2802191
N 1.0129355 1.4124815 -0.004052285
C 0.31184748 0.3670471 0.10490761
C 0.13306439 -0.60688907 1.2413902
N -0.56336486 -1.5138024 0.29323116
C -0.5881625 -0.47774667 -0.7700475
H 1.4744923 2.7217007 -1.2380995
H -0.49187583 -0.21751347 2.0541217
H 1.048782 -1.0294558 1.6670957
H -1.4824609 -1.7984401 0.6087864
H -1.5675263 -0.019486787 -0.95498616
H -0.1614452 -0.80658525 -1.7221282
