11

N -1.5264456 0.10886673 0.3830878
C 0.88573045 -0.11405063 0.19166692
O 0.7950806 1.212802 -0.37476283
C -0.4254144 -0.58038944 0.78871936
C 1.1267649 -0.29430294 -1.2649612
O -0.45368287 -1.5477247 1.5248637
H -1.4284968 1.0087173 -0.05908949
H 1.564708 1.0801598 -1.1251589
H -2.4072633 -0.14504474 0.80235964
H 1.7072532 -0.24391639 0.89320874
H 0.16176601 -0.4851172 -1.7599338
