9

N -0.119029656 -1.233785 0.18986689
C -0.06219245 -0.6049164 -0.93352854
C 0.07514417 0.8368062 -0.8258283
C 0.118344896 1.2373586 0.47942978
N -0.007001581 -0.12092485 1.1400611
H -0.8261972 -0.13619803 1.7502698
H -0.11766752 -1.1797433 -1.8532637
H 0.8025286 -0.29342 1.7381788
H 0.13607067 1.4948225 -1.6851856
