17

C -0.5528801 0.031364642 2.0752513
N 0.5251676 0.8049817 -1.418599
C -0.4439438 0.22440681 -2.482694
O -0.45046332 2.0949018 0.21865048
N -0.0010781989 -0.09580998 0.73479384
C -0.009971896 1.0006726 -0.05848774
C 0.62694705 -1.3573699 0.37876624
H 0.2337581 -0.092052214 2.8281958
H 0.4916158 -1.5731944 -0.6829018
H -1.3139961 -0.7411662 2.2301557
H 1.3671257 0.23431005 -1.4211992
H -1.0051303 1.0163964 2.181682
H -0.8099993 -0.696552 -2.003452
H 0.7850872 1.7359835 -1.7410723
H -1.2853119 0.9346439 -2.4027433
H 1.6982409 -1.3622897 0.62092227
H 0.14483242 -2.1592267 0.9427319
