10

O 0.57496697 -1.0517881 0.23039368
C 1.4022082 -0.065152995 0.8376207
C -0.34385064 -0.028748112 0.028698375
O -1.6610945 -0.19617721 0.31303963
C -1.2888459 0.12099638 -1.063751
O 0.4203412 0.94998306 0.64939237
H -1.5871792 1.1137283 -1.3896401
H 1.6071777 -0.2734022 1.8903713
H 2.3157701 0.12730847 0.2668224
H -1.439494 -0.6967475 -1.7629476
