11

C -0.65689487 0.96805578 0.73578179
C 1.59497388 -0.44269576 -0.19894718
C -0.71753762 -0.05455803 -0.11980637
O 0.28740826 -0.79419985 -0.62836772
C -1.99725373 -0.50670681 -0.63293978
N -3.02715413 -0.85101751 -1.03120790
H 1.83741417 0.58569324 -0.48835395
H 1.69230471 -0.55796292 0.88571132
H 0.28567859 1.32805177 1.13539808
H -1.56480850 1.46253229 1.04804447
H 2.26586923 -1.13719221 -0.70531289
