11

C 1.2680347 -1.0373113 -0.30915135
C -1.9235607 0.60820323 -0.75920343
C -0.27373388 0.9385538 0.9768338
O 0.002279214 -0.6523536 -0.82621574
C -0.6509362 0.3010889 -0.13348353
N -2.9413576 0.86850417 -1.2431405
H -0.9184946 1.6875224 1.4123241
H 1.958545 -0.18695837 -0.2945593
H 1.6406124 -1.8044881 -0.98845816
H 1.1663673 -1.4528537 0.69893205
H 0.6722448 0.73009247 1.4661223
