11

C 0.21864691 -0.068131514 -0.8413473
C 0.31896678 -0.2979631 1.6485394
C -0.80629176 0.638015 -0.2254144
O 1.2208443 -0.49094525 -0.2034408
C 0.1789411 -0.34355816 -2.276292
N 0.13684762 -0.55719227 -3.4128058
H -0.009963525 -1.3254074 1.5515515
H -0.37405276 0.35472822 2.165573
H -1.7765526 0.7606314 -0.6976046
H 1.356388 -0.15045774 1.9218435
H -0.46377409 1.4802808 0.3693972
