10

N -1.0243077 -0.43867153 1.2440268
C 0.51180094 0.88991827 -0.21946485
C -1.3217983 -0.7680486 2.329454
C 0.64400077 -0.5513429 -0.6186769
C -0.6519088 -0.04483723 -0.05132581
H 0.43221727 1.6475264 -0.99330735
H 1.2383211 -1.1985202 0.01814247
H -1.5010784 0.06177091 -0.7211583
H 1.0170829 1.209782 0.6866657
H 0.65567017 -0.8075769 -1.6743555
