10

N 0.90404403 1.9254678 -1.8483293
C 0.3528391 1.0785272 -1.285561
C -0.32679188 0.022232968 -0.57310766
C -0.48299646 0.12061262 0.9279048
C 0.46549025 -0.8767324 0.3503446
H -1.1428446 -0.43190965 -1.1268046
H -1.422569 -0.22697745 1.3435633
H -0.06783878 0.99859494 1.412856
H 0.19227962 -1.9273894 0.360523
H 1.5283877 -0.6824269 0.438611
