10

N 1.0199788 1.3519685 1.1188773
C 0.70221955 -0.95080644 0.08322698
C 0.48355255 0.39498833 0.43943325
O -0.3470402 -1.3976619 -0.71743584
C -1.1758013 -0.42389175 -0.8812454
N -0.7531325 0.65301603 -0.23347305
H 1.8895485 1.0433908 1.5374486
H -2.069458 -0.5427827 -1.4740629
H 1.4566113 -1.680995 0.31459075
H -1.2064788 1.552774 -0.18735977
