10

N -0.77259232 0.61370901 -0.27314915
C 0.68020987 -0.81337345 0.52897083
C -1.33772288 -0.02727287 0.74063484
O -0.51211122 -0.87794284 1.24722426
C 0.56877477 0.16059403 -0.48336868
N 1.25166923 0.69692093 -1.43794554
H -2.33279500 0.09346166 1.13993999
H 1.46562496 -1.46421289 0.86859211
H -1.18755283 1.33240440 -0.84629695
H 2.17649563 0.28571181 -1.48460154
