10

O -0.88194106 1.60900199 -1.11970226
C -0.59701926 0.33258399 -0.89587564
C 1.26524817 -0.55963535 0.10765511
N 0.72386799 -1.67300320 0.50765307
N -0.33113389 -0.98284246 1.16526952
C 0.05261963 0.26316123 0.46611621
H -1.31194970 1.66188584 -1.98360288
H 2.23606991 -0.39008326 -0.34804388
H -1.23253989 -1.41066267 0.99295470
H 0.07677790 1.14959393 1.10757614
