11

N 1.4114238 -0.7067994 1.1327609
C -0.28746867 1.0133469 0.49249372
C -1.0813301 -0.041380208 -1.3438228
O -2.0417469 -0.30559042 -2.0333893
C 0.33049616 -0.22812003 0.40623257
O -1.1039796 1.2028428 -0.51022404
N -0.12929256 -0.87975466 -0.6742788
H 1.5162064 -0.28751543 2.045828
H 0.04768041 0.10226321 -1.853287
H -0.094126694 1.8472902 1.1589609
H 1.4321377 -1.7165827 1.1787262
