11

N 0.948081 1.1435755 1.1231979
C 0.119689696 0.3237378 0.35741797
C -1.2042309 0.12567875 0.3142509
O -1.5091354 -0.7310126 -0.73555094
C -0.34852287 -1.0897689 -1.3597417
O -0.274781 -1.8033605 -2.3232915
N 0.6622748 -0.46710277 -0.6564062
H 1.6178582 0.6197397 1.6749973
H 0.41849315 1.7598382 1.7241966
H -2.025355 0.49773023 0.903563
H 1.5956285 -0.3790555 -1.0226334
