11

N -0.1965349 0.40359864 -1.1835299
C -0.40517515 0.32489392 1.2657982
C -1.3788633 0.37802547 -1.4741739
O -2.4542935 0.38113022 -1.9276816
C 0.52243936 0.27845365 0.055917244
O -1.6015538 0.39174005 1.1753893
N 1.3262846 -0.9132716 0.18990102
H 0.76765937 -1.7381911 0.00055694435
H 0.124560215 0.25870126 2.2342033
H 1.2041674 1.135053 0.13993952
H 2.091309 -0.9001333 -0.47632012
