10

N -0.28118393 0.97538453 -1.3517593
C 0.18521509 0.33629203 -0.23098737
O -1.2207339 -2.3311496 1.4506009
N 1.254011 0.5059483 0.4220251
C -0.4337117 -1.4980456 1.1217659
O -0.73056054 -0.6276204 0.11366548
H 1.8311064 1.2427593 0.03325416
H 0.09183184 1.8897386 -1.54562
H 0.5624702 -1.3394886 1.5552249
H -1.2584445 0.84618115 -1.5681697
