10

N -0.2760855 -0.7283913 -0.63156193
C 1.2703345 0.04026835 -1.138407
O 1.2934352 0.6169816 -2.1766598
N -1.1091781 0.3588173 1.3515522
C -0.2483402 0.14453892 0.3377526
O 0.8134815 0.8742136 0.22258328
H -1.8507547 -0.292237 1.5404328
H 1.9900221 -0.6734133 -0.7246506
H -1.0333648 -1.3615792 -0.8458975
H -0.84955037 1.0208011 2.0648558
