11

C 1.0103526 -0.8096567 -1.1413743
C 0.21582092 -0.16433524 -0.05907221
C -0.8841019 0.6315521 -0.05291989
C -1.0921426 0.88294977 1.3309996
N -0.20088094 0.2913422 2.0747602
O 0.6273016 -0.37265548 1.2007356
H 1.006871 -1.8985252 -1.0351578
H 0.58770025 -0.55283433 -2.1139996
H 2.0514286 -0.47234717 -1.1131457
H -1.4586567 0.9862501 -0.89425874
H -1.863693 1.47826 1.803433
