11

C -1.8922558 -0.27427822 -0.8291291
C 0.9119271 0.05085033 1.4168038
C 0.31663546 -0.08794846 -1.1192389
C 0.060173854 -0.018306846 0.20162825
N -0.906345 -0.29292685 -1.771927
O -1.2902527 -0.066425376 0.38192576
H 1.9639165 0.11668267 1.1351957
H 1.2580348 -0.056230184 -1.6477306
H 0.7609807 -0.84290487 2.0294952
H -1.8278624 0.548408 -1.8165461
H 0.64504725 0.9230798 2.0195231
