10

O 0.95932716 1.898948 -1.9081224
C -0.62203676 0.59906024 0.5980229
C 0.31995675 -2.5822105 0.69554245
N -0.93535715 -0.64634115 0.003317185
N 0.26172492 1.4065627 0.15804142
C 1.2441126 1.3589572 -0.7314524
N -0.3018115 -1.6300759 0.41884196
H 0.025669402 2.1835756 -1.9655393
H -1.237108 0.893681 1.4509029
H 0.28552258 -3.482157 1.2804453
