10

N -0.33281074 -1.07519962 -0.18999614
C -0.89513593 0.10160052 0.47490531
C 1.08902095 -0.73255699 -0.77378952
C 1.17504655 0.57040138 -0.39000866
C 0.01367246 1.07205926 0.34697379
H -1.86976600 0.07062101 0.94408797
H -0.89761171 -1.40633314 -0.97331379
H -0.21437182 -1.87280340 0.43586520
H 2.03421238 1.19397951 -0.60998500
H -0.10225624 2.07823080 0.73526082
