11

O -0.93433380 1.10378547 0.95340104
N 0.89329043 -1.03010403 -0.88516186
C 0.17899493 -0.22563980 -0.16500872
C -0.56603662 1.03461999 -0.44725794
O 1.13113783 -0.91700920 -2.12159537
C -0.24008384 -0.11764010 1.27365119
H -0.92542822 -0.89073683 1.64402052
H -1.44321752 0.94859927 -1.09962815
H 1.30420058 -1.84136760 -0.39920818
H 0.56144482 0.04207347 2.00717874
H 0.04003108 1.89341932 -0.76039179
