10

N -0.32094648 -1.0025965 -1.5090442
C -0.0761596 -0.4414182 -0.26828143
N -0.034708213 -1.1722038 0.8154937
O 0.31354645 -0.30513075 1.8409783
C 0.45319614 0.92208374 1.3359866
C 0.2241472 0.9294336 0.0039965925
H -0.878794 -0.42658016 -2.1212842
H -0.6759987 -1.9478941 -1.4513085
H 0.72265685 1.6909996 2.0445368
H 0.2730603 1.7533064 -0.69107413
