11

N -0.178832 -0.4168744 1.9401197
C 0.6583199 0.5291876 -1.367528
C -1.1170517 -0.27596793 -0.34058052
O 1.0520339 0.1371529 -0.06439526
C -0.14942345 -0.17907736 0.5682961
O -0.61564255 -0.045816924 -1.6080753
H 0.2659821 -1.298889 2.173791
H -2.157854 -0.54540455 -0.24896125
H 1.3732541 0.14850904 -2.0982935
H 0.58334106 1.6247073 -1.411379
H 0.2858729 0.3224733 2.4570065
