11

N 1.64160174 -0.16428652 -1.45601528
C 0.48627709 -0.10251086 -0.73537929
N -0.70441845 -0.29256713 -1.15690630
N -1.48120321 0.10407614 -0.06736800
C -0.70536903 0.32382356 1.04932851
N -1.09391789 0.53002551 2.22814155
O 0.59692342 0.28304314 0.56354039
H 2.45397393 -0.47044358 -0.94294540
H 1.52144787 -0.60348676 -2.35525811
H -0.31275534 0.68293397 2.85789165
H -2.40255967 -0.29060748 0.01497037
