10

O -0.99925333 -0.09127711 1.9399762
C -0.35294792 0.005197067 0.77470934
C -0.7055707 0.8419381 -0.28505886
N 0.72105473 -0.7370571 0.48372626
C 1.0453368 -0.35435963 -0.7592796
N 0.21391413 0.67912793 -1.266361
H -1.563931 1.4887165 -0.3962681
H -0.5366391 -0.7531342 2.4712048
H 1.9941709 -0.5725681 -1.2371361
H 0.18386553 -0.5065834 -1.7255131
