9

N -0.51080922 -0.16824726 -1.13623784
C 0.72692536 0.03966571 -0.84217192
C 1.00791213 0.19810467 0.57350505
C -0.12611059 0.09133730 1.32557278
N -1.11862931 -0.15041606 0.20042417
H -1.83885086 0.57213355 0.21301594
H 1.45091813 0.08055957 -1.65075310
H 2.00153171 0.37853924 0.96685598
H -1.59288739 -1.04167665 0.34978895
