9

N -0.7965212 0.077217035 -0.90768325
C -0.47517905 1.3652828 -0.45213392
C 0.4201022 1.0447106 0.55487096
N 0.5876468 -0.34116188 0.6514435
C -0.17643741 -0.92271876 -0.26661038
H -1.4438866 -0.07981383 -1.6644524
H 0.9692184 1.6843117 1.2305224
H 1.1780459 -0.84332407 1.2971362
H -0.262989 -1.984504 -0.44309297
