11

O 0.86694074 -1.6586863 -2.617691
C -1.272012 0.38561213 0.79433686
C -0.4049293 -0.6274705 0.9306618
C 1.0025487 -0.89714855 -1.740261
N -0.36599943 1.3454903 0.28773382
C 0.67062265 0.2691995 0.35831907
N 1.2654247 -0.06138243 -0.9067055
H -0.39902225 -1.5812826 1.4393265
H -0.53294164 1.7009575 -0.65040714
H 1.4772507 0.5524226 1.0413051
H -2.3078828 0.57228833 1.0633813
