12

N 0.14210014 -0.15049806 -1.86308437
C 0.14315602 -0.22361290 -0.45750281
C -1.08947055 -0.11737423 1.55565606
N -1.04110929 -0.59097527 0.28290479
C 0.87506972 0.59750533 0.49461860
O 1.33035821 -0.71527066 0.14587800
N 0.04789197 0.62891683 1.65176259
H 0.22686770 -1.06572377 -2.28884355
H -0.70052587 0.30169767 -2.20607156
H -1.76302794 -1.18295834 -0.09079118
H 0.29383158 1.09331801 2.50860265
H 1.53485814 1.42497539 0.26687087
