12

N 0.49370518 -1.5915816 0.8950345
C -1.0050013 0.9400319 -0.86554396
C 0.041571166 -0.5027489 0.26963
N -0.12418542 1.7515962 -0.02886315
C 0.8066966 0.6110223 -0.17424761
O -0.24089435 0.5689506 -1.8333414
N -1.2786301 -0.1862597 0.046042673
H 1.8878936 0.69096065 -0.08342775
H -0.10398194 -2.3893127 1.0572418
H -2.0102413 -0.87291616 -0.062192332
H 0.15641297 2.5396714 -0.6046469
H 1.376655 -1.5594141 1.384314
