11

N 1.4214313 -0.3368071 -1.5895
C -0.24221262 0.4198485 1.3640593
O 0.94491476 0.4223102 0.5805478
C 0.62912804 -0.08230112 -0.6473841
C -0.8700511 -0.2987874 -0.6629545
O -1.3185859 0.41878036 0.47072873
H -1.335323 0.105725765 -1.5629973
H 2.3841774 -0.12267476 -1.3367819
H -0.27881634 1.3255248 1.9704437
H -1.0945585 -1.3718876 -0.58242166
H -0.24010395 -0.4797319 1.9962602
