11

N -0.41477185 -0.55180633 -1.4618527
C 0.19532889 -1.2951916 -0.6391561
O 0.7747315 -0.8185726 0.47480848
C 0.6973137 0.59388703 0.63009244
C -0.73199576 1.080857 0.80089456
O -1.0298913 2.2436702 0.70931226
H -0.78838205 -1.096935 -2.2326477
H 0.34291157 -2.3763456 -0.6904886
H 1.157145 1.1147884 -0.2141525
H 1.258111 0.8128092 1.54376
H -1.4605005 0.2928393 1.0794297
