11

N 0.32606754 2.9272678 0.4561556
C -0.2091027 1.9089085 0.35236698
C -0.8561542 0.60154104 0.20346867
C 0.010154917 -0.35580412 -0.597974
C 0.9180374 -1.2906687 0.066937305
O -0.33058304 -1.7203653 -0.46546504
H -1.8248913 0.73498607 -0.2904387
H -1.0513097 0.17434047 1.1932712
H 0.2363057 -0.03750262 -1.615511
H 1.801101 -1.6528463 -0.45712793
H 0.98037434 -1.2898571 1.154317
