11

N -0.83758414 -1.2269349 0.6861825
C -0.36599046 -1.2086396 -0.49513993
C -0.46417728 0.022106905 1.3097255
C 0.42854166 0.008992359 -0.91445684
C 0.21992926 0.92922467 0.28408766
O -0.6874638 0.281413 2.4591362
H -0.45725417 1.7598368 0.06336659
H 0.07449182 0.41439778 -1.8663099
H 1.1368119 1.3523268 0.69995743
H 1.476409 -0.27866134 -1.0611765
H -0.52371365 -2.0540621 -1.1653726
