12

N 0.9664747 -0.82350326 1.5746378
C -0.61740786 -0.7386511 -0.9520528
C 0.6697103 0.36044365 0.9243972
N -0.16043453 1.6203719 -0.90608317
C -0.013277735 0.41940627 -0.23037022
N -0.8188885 -1.9255968 -0.5657149
C 1.2618167 -1.7748013 2.1970167
H 0.059134167 2.458116 -0.38635617
H -0.4911019 -2.0764225 0.3861008
H 1.0674973 1.2506309 1.4008987
H -0.9896407 1.713631 -1.4708273
H -0.93388176 -0.48362488 -1.9716464
