11

O 0.79548573 0.49785364 1.6958417
C 0.46392107 0.3310343 -1.0667268
C -0.33939603 -0.3460889 -0.27913842
O -1.4726212 -0.9967179 -0.7129333
C -0.1280422 -0.44477358 1.2088133
N 1.2914788 0.8175609 -1.8473331
H 1.1525234 1.8087856 -2.032867
H 0.27282506 -1.4342575 1.4525692
H 0.43755603 1.3760787 1.5232787
H -1.1118886 -0.36280465 1.696887
H -1.3618419 -1.2466707 -1.6383916
