12

N -2.15081073 -0.77661601 -0.16513393
C -0.86710728 -0.37425305 -0.01359894
N -0.42243260 0.48859725 0.82090179
C 1.02109429 0.45882298 0.65072536
O 1.62748578 1.70172161 0.48281115
C 1.19595689 -0.51330137 -0.51456490
N 0.09491356 -1.02307384 -0.88240638
H 1.11177927 2.18750816 -0.17607221
H -2.85622203 -0.21048057 0.27794430
H 1.48661224 0.02656828 1.54758368
H 2.14547330 -0.76141168 -0.98189092
H -2.38674336 -1.20408141 -1.04629916
