12

N -0.010140904 -0.9414801 -0.9735718
C 0.9678913 0.84830815 0.14196971
N -0.087432794 0.31946322 0.99063367
C 0.8583211 -0.02717085 -1.1050407
O 0.91492164 2.220919 -0.090057254
C -0.5531567 -0.6832499 0.3454164
N -1.4929742 -1.5608541 0.7688633
H -2.022045 -1.2966557 1.5841645
H 0.0024514892 2.4382782 -0.32716957
H 1.9430437 0.67073876 0.61678845
H -1.973949 -2.0836608 0.05459484
H 1.4530693 0.0953642 -2.0065913
