10

C 0.06406461 -0.1820776 -1.2870877
C 1.0488704 0.3737899 0.26502648
N 0.8653427 -0.48765752 1.3353423
C -0.42354316 -0.45090586 1.1300324
N 1.3304806 -0.21221763 -0.9645801
C -0.7868578 0.16446811 -0.15052791
H -0.29493588 -0.4075138 -2.2899804
H 1.112863 1.4512556 0.41876853
H -1.7747463 0.5980767 -0.3044209
H -1.1415379 -0.8472178 1.8474272
