9

O 0.83670324 -1.7220132 -0.62334466
C 0.27298424 -0.5742494 -0.21491857
N -0.6597651 0.067632474 -0.89644283
N -0.9063558 1.1228982 -0.12445207
N -0.21396053 1.2119678 0.98958534
C 0.56005746 0.13161512 0.9674398
H 0.4405698 -1.9607067 -1.4714104
H -1.5901912 1.8163606 -0.38370052
H 1.259958 -0.093504906 1.7572438
