9

O 1.79373668 -0.68023608 0.90282318
C -0.22043066 -0.37825228 -0.76173297
N -0.57233454 -1.14410903 0.51926773
N -0.77601525 0.93929204 -0.96743109
N -0.97184373 1.57265290 0.07794181
C 0.59988867 -0.71747012 0.35252103
H -0.20663054 -0.94527235 -1.69044388
H -1.39297417 2.47043451 -0.20109491
H 1.74660365 -1.11703960 1.76814899
