9

O -0.2097001 1.771699 0.069618106
C 1.0171293 0.003347265 -0.98832196
N -0.82296443 -1.4911342 0.6349701
N -0.4633914 -0.33601066 0.982273
N 0.41301286 -0.8914377 -1.5843956
C 0.08861283 0.4776328 0.0934434
H -0.8800244 -2.0280056 1.5143976
H -1.0700504 1.9246866 0.48765615
H 1.9273756 0.5692222 -1.209641
