11

N 2.3959131 -0.19999127 -0.28538433
C -0.089791 0.80672985 -0.28262642
C -1.1514244 -0.2675568 -0.628367
C 0.1660764 -0.27221698 0.97347254
C 1.4688648 -0.39072576 0.43916792
O -0.8035868 -1.1454227 0.4776684
H 0.0801108 -0.0053488975 2.028528
H 1.6911432 0.5562 -0.77990323
H -0.5480435 1.6900424 0.18133652
H -2.205805 0.028022816 -0.5461308
H -1.0034571 -0.7997327 -1.5777612
