11

N 2.25366516 -0.62267601 -0.15039864
C -1.00919146 0.88826329 0.44716163
C -0.25527766 -1.01122623 0.31755126
C -0.19652387 0.20887784 -0.65101706
C 1.01320714 -0.41700468 -0.07598658
O -0.93707099 -0.26298019 1.31385957
H -0.54728853 -2.04162089 0.15511723
H -2.04735582 1.07323569 0.14879301
H -0.58441381 1.78428252 0.91370614
H -0.38988092 0.29034796 -1.71532081
H 2.70013066 0.11050081 -0.70346532
