11

N 1.3635228 -0.66354007 2.5927932
C 0.65749216 -0.6738853 1.6809756
C -0.24292733 -0.6546463 0.5153404
C -0.5313079 0.7415083 -0.07406432
C 0.24409787 0.22094354 -1.2911545
O 0.40756324 -1.074571 -0.68282557
H -1.1214869 -1.2672561 0.7428319
H -1.5914807 0.9293646 -0.24457228
H -0.08155594 1.579006 0.4609885
H -0.3152321 0.16058373 -2.2274935
H 1.2113147 0.7024927 -1.472819
