11

N 1.6626223 -0.946429 -1.3525203
C -0.4073044 0.9277322 0.990378
C -0.42346385 0.37480715 -0.4315933
C -0.320345 -0.9980619 0.2997258
C 0.708526 -0.5554923 -0.6290269
O -0.22543408 -0.37896264 1.5745013
H 1.9599521 -0.19707204 -1.9792751
H -1.3751621 1.3452576 1.2902911
H -1.0745857 0.7159353 -1.2293644
H 0.4013886 1.6168447 1.2588736
H -0.90619385 -1.9045594 0.20801032
