11

C -0.59304266 0.35115641 -0.19295938
C -0.18668409 -0.46182489 -1.33405738
O 1.23726697 -0.46279369 1.14830978
C 0.36537925 0.62357083 0.94947131
O -0.99489094 -1.01014324 -0.28574615
H -1.40318325 1.07120673 -0.31895796
H -0.69740208 -0.34914394 -2.28920074
H 0.68541447 -1.25568441 1.11386727
H 0.82950634 -0.84929093 -1.37062854
H -0.22081712 0.84165222 1.85593782
H 0.97845292 1.50129500 0.72396370
