11

C -0.8405184 -0.13992722 -0.71146584
C 0.40467864 -0.927631 -0.29148686
O 0.6609117 -0.42808163 1.0071163
C 0.35174453 0.93652046 0.9199658
O -0.7389697 1.0665503 0.03039245
H -1.763155 -0.66210425 -0.43462205
H -0.8631855 0.07843639 -1.785187
H 0.24943553 -2.0061164 -0.22547247
H 1.2533618 -0.71849287 -0.9598756
H 0.070438005 1.2964488 1.9136599
H 1.2152582 1.5043975 0.5369751
