12

O -1.5816746 -0.52032506 -0.85358125
C -1.2445238 0.44224304 0.15712829
C 1.4636713 -0.07706405 -0.90613633
C -0.063647866 0.083401 0.97364146
N 1.1260552 -0.08971509 0.3747315
H 2.513341 -0.20924221 -1.1450206
H -2.1013744 0.6148983 0.82391673
H -1.5225073 -1.3825694 -0.4335797
H 1.8918169 -0.25256506 1.019915
H -0.07683588 0.039555993 2.0545256
H -1.0810825 1.3615335 -0.42178538
H 0.6767621 -0.010151018 -1.6437551
