12

O 1.2094139 -0.75414497 -1.1012177
C 1.0618689 0.5492311 -0.5836005
C 0.06439129 0.6791921 0.54051954
C -1.4565543 -0.5189587 -0.0739564
N -0.6420869 -0.3748794 1.0119276
H -0.7205605 -0.74835616 1.9515063
H 1.2340238 -1.3664805 -0.36273837
H 2.0200677 0.9315169 -0.18139592
H 0.8048788 1.1937867 -1.4335743
H -1.603454 -1.494711 -0.525882
H -2.0822213 0.31030148 -0.37866262
H 0.11023266 1.5935024 1.1370746
