12

O -1.83077646 -0.17253781 -0.34571941
C 1.02498043 0.45087594 -1.30976393
C 0.29780555 -0.38120752 0.85145591
C -1.04679186 0.23343809 0.78666459
N 1.16726641 -0.17605841 -0.15154328
H 0.04010768 0.79780799 -1.58806001
H -0.99570128 1.32499470 0.67333780
H 1.89771877 0.51605994 -1.95040586
H 0.66596328 -0.92107707 1.71366678
H -1.72557300 -1.12497732 -0.41754259
H -1.58350797 0.01912765 1.72187390
H 2.08850865 -0.56644625 0.01603630
