10

C -1.0775778 -0.852325 0.14403382
C 0.28697923 1.1813239 0.5234157
C 0.121682934 -0.096810855 -0.12913336
C 0.4388899 2.2441776 1.059153
N -0.9998486 -1.9698851 -0.56428486
N 0.9722293 -0.6181306 -0.9464361
N -0.20720649 -2.406692 -1.2964522
H -1.9103898 -0.61593896 0.7856736
H 0.571701 3.1902714 1.5380358
H 1.8035402 -0.055990364 -1.1140052
