10

C -1.0433575 -1.8330828 1.417352
C -0.4331508 -0.9907358 0.8147722
C -0.3908354 0.74028426 -0.9041792
C 0.34265673 0.016761137 0.11773464
N 0.23784368 1.6701777 -1.567633
N 0.7953274 2.4697454 -2.137897
N 1.5741197 0.26975748 0.360833
H -1.4237655 0.5720742 -1.1658984
H -1.5801257 -2.5826905 1.9576961
H 1.9212873 -0.33229128 1.1072198
