10

C -0.58110666 0.45891461 2.43092292
C -0.17640321 0.27079497 1.31475572
C 0.35741131 0.05941028 -0.01684007
C -0.62654042 -0.35166562 -1.00104528
N 1.58956403 0.21405225 -0.32907486
N 0.14009274 -0.72524992 -3.27981381
N -0.22322818 -0.55130793 -2.22480683
H -0.93429481 0.62893249 3.42508367
H 2.12999824 0.50525920 0.48530262
H -1.67549309 -0.50914035 -0.80448448
