11

C -1.1436082 -0.31317416 0.70797867
N -0.057752192 0.65824807 0.6400673
C 1.1032541 0.18400924 -0.084786914
C 0.8294269 -0.16915822 -1.500299
N 0.5503814 -0.4183318 -2.5929594
H -1.5131055 -0.64005965 -0.27593863
H -1.9736437 0.1273565 1.2676898
H -0.80131793 -1.1971245 1.2585458
H -0.3848102 1.5213819 0.22154003
H 1.8857527 0.94886136 -0.062062096
H 1.5054226 -0.70200866 0.42022434
