11

C 0.36771291 -0.11350639 1.6920933
N -0.52538824 0.28052795 -0.17307581
C -0.39549944 -0.46641353 -1.4143797
C 0.688243 0.7388759 0.5866204
N 1.613565 1.5018549 0.35456613
H 0.720557 -1.1401021 1.7146577
H -0.12027817 0.25618878 2.5931587
H -1.2966944 0.9391831 -0.15961787
H -0.2950225 0.20054825 -2.278622
H -1.2638069 -1.1156677 -1.5652924
H 0.5066122 -1.081489 -1.3501087
