9

C 1.07094170 1.36355300 -0.22114610
C 0.25521219 0.26015728 -0.77528986
C -0.42833727 -0.55393469 -0.00390936
C -1.11061338 -1.36603290 0.74583785
O 1.18582531 1.61674120 0.95609782
H 1.59206905 1.96896419 -0.99339064
H -0.66773907 -2.28517145 1.12282317
H 0.23772977 0.13732278 -1.85624776
H -2.13508817 -1.14159939 1.02522474
