11

C -0.45147148 1.16160306 -1.22005698
C -1.13381417 0.27082040 -0.28014845
C -0.22076177 -0.78835513 0.36138579
O -0.69043679 -1.85730113 0.65754106
C 1.21045054 -0.39665650 0.63001628
N 0.11181178 1.85000052 -1.95472953
H -1.96315254 -0.24106524 -0.77861080
H -1.55926964 0.87437249 0.52929956
H 1.74320667 -0.27750655 -0.31884221
H 1.69847377 -1.16564329 1.23005027
H 1.25496385 0.56973142 1.14409499
