11

C 0.3281778 -0.83244014 -0.013490158
C 1.4025868 0.22407961 0.04456283
C -1.1273208 -0.3698127 0.17247586
O 0.5504285 -2.008016 -0.15339777
C -1.4079622 0.9609237 -0.3687213
N -1.6006904 2.012244 -0.80289215
H 2.385499 -0.2481047 0.066328205
H -1.3369248 -0.3625194 1.2478858
H 1.3264458 0.8743322 -0.8327811
H -1.7891153 -1.1116079 -0.285849
H 1.2688752 0.86092144 0.9258787
