11

O 0.92715628 -0.56173223 2.29456762
C -0.44783326 -1.17035337 0.36717049
C -0.71474329 -0.54010996 -0.77471697
C -0.00710742 0.79110889 -0.82269556
C 0.46603954 -0.32481940 1.19721646
N 0.68510293 0.80478478 0.44485948
H -0.80039140 -2.13792449 0.69923633
H -1.34418310 -0.88607421 -1.58660324
H -0.71987496 1.62057677 -0.91593505
H 1.27243417 1.55397488 0.77014648
H 0.68340049 0.85056839 -1.67324596
