11

O 0.17813326 1.0206729 2.3166134
C -0.5404255 -0.94628024 -0.46395817
C 0.32490858 0.120285705 -1.087519
C -0.6839569 -0.72757745 0.84138566
C 0.07182389 0.50637156 1.2224798
N 0.63815016 0.95134723 0.05145178
H -0.2171377 0.6708375 -1.8671514
H -0.9634165 -1.75663 -1.0465875
H 1.2085541 1.7793571 0.01836964
H -1.2403933 -1.3105009 1.5634228
H 1.2237598 -0.3078836 -1.5485072
