9

O -1.5234238 1.5234433 -0.22249304
C 0.5554123 0.40125015 -0.9007114
N -0.8570806 -0.4459375 0.76829535
O 0.19969398 -1.307675 0.6847711
C 1.0813149 -0.7480807 -0.24344374
C -0.6514262 0.5174052 -0.08076394
H 1.8131032 -1.4553622 -0.6225074
H 1.6480883 0.14359371 0.23608078
H -2.2656822 1.3713628 0.3807723
