9

O -1.2537519 0.03387072 -1.6165015
C -0.51094234 -0.1331227 -0.5137071
N -0.67603135 -1.1483399 0.28749192
O 0.2576378 -0.97763133 1.2954957
C 0.94999456 0.14247228 1.0553249
C 0.5260926 0.74556404 -0.077423826
H -1.8793339 -0.7028305 -1.6667029
H 1.7146765 0.38495845 1.7791005
H 0.87165785 1.655059 -0.54307795
