11

O -0.057734393 0.028260533 -1.3925859
C 0.4291159 -0.035100725 0.90728426
N -0.4586024 -1.1478314 0.48904008
C -1.4192928 -0.6386697 -0.24696724
C 0.6667639 0.758445 -0.4403727
O -2.5193646 -0.52226627 -0.58212936
H 1.3369049 -0.46914735 1.3294802
H 0.066016674 -1.1107743 -0.6687436
H 0.28977922 1.7856755 -0.37428758
H -0.06562119 0.5685153 1.6722033
H 1.7320344 0.7828935 -0.6929213
