11

O -1.27134742 0.90232846 0.20535561
C -0.82756038 -0.38359536 0.58525668
N 1.47188593 0.05294194 -0.19827070
C 0.35169147 -0.85794903 -0.25865841
C 1.53521585 1.26026367 -0.25850928
O 1.77227906 2.40602714 -0.32135755
H -1.63676464 -1.12588049 0.53039024
H 0.68522171 -1.84046052 0.09267819
H 0.03772017 -0.98245955 -1.30579589
H -1.60197897 0.86312313 -0.70103834
H -0.51636225 -0.29433979 1.62994936
