10

C -0.9898099 0.38481268 -1.3111758
O -0.5384844 -0.39441812 -0.19336526
C 0.52356404 0.09491265 0.4331215
O 1.1146628 1.1052465 0.14518853
C 0.96284944 -0.76761484 1.6148636
O 0.4079502 -1.7750984 1.948894
H -1.8478267 -0.15702944 -1.7091461
H -1.283091 1.3866439 -0.98555267
H -0.20190617 0.4660023 -2.063899
H 1.8520918 -0.34345713 2.1210713
