10

C -0.81764084 -0.48297851 -1.11020519
O -0.40699659 -1.61325535 -1.07167784
C -0.12624437 0.69450254 -0.45733622
O 1.07966348 0.29554793 0.17028458
C 0.91427853 -0.28046201 1.37543424
O -0.13347643 -0.40654682 1.94761881
H -1.74868761 -0.21457730 -1.65187895
H -0.80766698 1.16393005 0.26002576
H 0.14963344 1.42880249 -1.22159586
H 1.89713747 -0.58496291 1.75933076
