10

C -0.087422766 -0.12924574 -1.0885167
O -1.3791249 -1.4289668 0.50528216
C -0.35182935 -0.9288709 0.08443223
O -0.17853594 1.6075937 0.07167647
C 0.30912697 1.0590471 1.0682564
O 0.538649 -0.21679665 1.1661916
H 0.93761414 0.13196161 -1.3231133
H 0.44085902 -1.6296669 -0.5478921
H 0.5959035 1.6481774 1.9479102
H -0.82523996 -0.113232724 -1.8842269
