10

O -0.57152027 -2.2495544 1.9729586
C -0.5976096 -1.6478497 0.96453446
C -0.07524521 -0.046415728 -0.8308083
C 0.4086537 1.0854459 0.0685047
N -0.73191255 -1.105956 -0.09870458
H -0.42675504 1.5281374 0.6187237
H 0.7614803 -0.4823702 -1.3912913
H 0.88186294 1.8690709 -0.53063947
H -0.7892013 0.32893738 -1.5690235
H 1.1402471 0.7205547 0.79574573
