11

C 0.80978311 0.83729553 -1.33935294
N 0.34932070 0.11590355 -0.37482207
C 0.07408025 -1.38591412 1.09280953
N 0.92653984 -1.00383474 0.10225755
C -0.90908146 0.38964954 0.39609075
N -0.98345262 -0.68297589 1.34423813
H 0.25933585 1.72170011 -1.63547981
H -0.82291914 1.36611848 0.88143679
H 1.73485173 0.53943576 -1.81630910
H 0.31636134 -2.28873949 1.64690368
H -1.75481969 0.39136152 -0.29777243
