10

O -0.6630494 -0.12506105 -2.0085335
C 0.52262986 0.63738614 0.39154366
N -0.9133496 1.6318915 1.113878
C -0.40352318 -0.9590002 -1.1778073
C -0.39701182 0.9058673 1.9051368
N 0.2618244 -0.69309634 0.0048534637
H -0.64941263 -2.0297036 -1.2897683
H 0.39823452 1.2796297 -0.47766662
H 1.4969987 0.78129035 0.849432
H 0.34665933 -1.4292036 0.6889319
