11

N -1.4363143 0.24222113 1.1715622
C 0.1534195 -0.27772692 -0.34315673
C -0.3516595 0.9516302 1.4112662
C 0.6860279 0.68154985 0.49099404
N 0.6845142 -1.0080414 -1.4103668
N -1.1075304 -0.50371385 0.09740428
H 1.6467198 -0.75035983 -1.5861022
H 0.14954941 -0.9115963 -2.265595
H -1.7536603 -1.1975802 -0.2405362
H -0.3412892 1.6499689 2.2369971
H 1.6702226 1.1236483 0.4375328
