11

N 0.09611988 0.71976833 -1.71654767
C -0.00673869 0.17082041 -0.43497269
C 0.89014656 -0.49525650 0.37226305
C 0.12888203 -0.85786190 1.50612063
N -1.12130289 -0.44802710 1.42694766
N -1.18495636 0.17654870 0.23355485
H 1.02697559 0.59683987 -2.09273724
H -0.15326273 1.70133899 -1.75164191
H 1.93554937 -0.68307555 0.17527239
H 0.45959444 -1.39900231 2.38214138
H -2.07100765 0.51790700 -0.10039986
