10

O -1.3830045 -0.04111241 -0.79356015
C 0.33271024 -0.5105324 -0.61759967
C -0.62270236 -0.78235185 0.45642003
C 1.161566 0.5762206 -0.22600527
N 0.7995217 0.9925896 0.9728208
N -0.26387453 0.2816043 1.322356
H -0.5692954 0.35473922 2.279715
H -1.9062623 -0.76955265 -1.1462153
H 1.9798515 1.0406587 -0.75949925
H 0.47148973 -1.1422634 -1.4884318
