15

N -0.4699953 -2.2405257 1.2990944
C -0.3193003 -0.9245107 0.9025748
O -0.8052566 0.00040939072 1.5459155
N 0.41732547 -0.75999707 -0.24192494
C 0.9335585 0.54042715 -0.67276406
C -0.13567476 1.5840486 -1.0141914
O -0.60874057 2.303754 0.091545
H -1.1874157 -2.343306 2.0020766
H -0.47249198 -2.9545739 0.5874937
H 0.9711863 -1.5554379 -0.52449244
H 1.5292665 0.33892763 -1.5700055
H 1.5984887 0.96751386 0.088504836
H -0.9420515 1.0825341 -1.5742087
H 0.31678048 2.3218405 -1.6872637
H -0.8256795 1.6388962 0.7676455
