15

N -0.9389094 0.26890743 0.4981603
C 0.11443432 1.24803 0.7412267
O -0.87733 -1.9973292 -0.21170332
N -0.6802791 -0.41961125 -1.7820991
C 1.3001126 0.2963429 0.85712427
C -0.37840828 -0.71991265 -0.4061502
O 1.01522 -0.7081957 -0.112660974
H -0.48548383 -1.2288641 -2.360964
H -0.9568495 -2.1234283 0.7394557
H 1.35231 -0.14603834 1.8587798
H 0.26483735 1.9486864 -0.097427495
H -1.7949853 0.6503767 0.11120265
H 2.2654557 0.7508997 0.61408335
H -0.08358221 1.8219643 1.6490589
H -0.11654234 0.35817188 -2.0980866
