9

O 1.7341383 1.3712645 1.3053465
C -1.1062185 0.0031619642 0.111051515
N 1.1615013 -0.36747524 -0.15839593
C 0.98565054 0.6672713 0.6951678
C -0.19940355 -0.7679145 -0.5886536
O -0.4768415 0.87934196 0.8471157
H -2.188766 -0.011129263 0.13402446
H 0.44725633 -0.042358473 -1.2915541
H -0.3573167 -1.7321622 -1.0541022
