9

O -0.91035435 -0.76169287 -2.66129862
C 0.97287378 -0.37476957 0.66296954
N -0.97573398 0.42801711 -0.60752988
C -0.25029396 0.52135724 0.61338896
C -0.86573533 -0.22355858 -1.62499025
O 1.29515222 -1.10177841 -0.23734182
H -0.89709432 0.26410577 1.46363291
H 0.07716369 1.55481917 0.78767835
H 1.55402223 -0.30649992 1.60349078
