11

C -0.071389176 0.66166854 0.9260241
N 0.9204462 0.0068975613 0.26408067
C 0.881024 0.22687516 -1.115395
C -1.1251968 -0.25242603 0.6901015
N 0.70556074 -1.4141135 0.41124
N -0.49992245 -1.5520005 0.7065459
H 1.5594317 -0.38461408 -1.7097532
H -0.108359106 1.7413307 0.89215034
H -2.1522307 -0.19489591 1.0342658
H 0.77120554 1.2715673 -1.4061526
H -0.88057 -0.11028914 -0.6931078
