9

O -1.00304999 0.49552336 -1.53765555
C -0.90805448 -1.92193847 1.14939878
C 0.11206637 0.08346044 -1.61799172
N -0.46257522 -0.83336640 1.21423559
C 0.05471950 0.43951895 1.29935484
N 0.75930334 1.02654814 0.41928523
O 1.07015410 0.18690403 -0.67049717
H -0.17276074 0.98869191 2.20617077
H 0.55019768 -0.46534215 -2.46230064
