9

O -2.576834 0.67295116 0.2913454
C -1.6302758 0.097169936 0.7613805
C -0.30147836 0.044541724 0.09515268
N 0.76298183 -0.54572 0.5438256
C 1.6604017 -0.2789311 -0.4542978
N 1.183404 0.4217574 -1.4407475
O -0.12819451 0.6421778 -1.0776381
H -1.6591123 -0.4396084 1.7257385
H 2.689108 -0.6143387 -0.44475916
