13

C -1.0077076 -0.7500164 1.1124822
N 0.2942817 0.0021708845 -0.60957515
C 0.6405934 1.2317713 -1.3138616
O 0.5514438 1.105144 1.495393
C 0.09246228 0.15530153 0.9237596
O -0.79974234 -2.0822127 0.6544744
H -0.21063508 1.9149288 -1.2548174
H 1.502543 1.712836 -0.8485874
H -1.5494956 -0.6664007 2.0555863
H -0.90424204 -0.27202356 -0.35257554
H 0.84745556 1.0078772 -2.3631344
H 0.87475336 -0.79775345 -0.84611267
H -0.33171058 -2.561623 1.3469684
