9

N 0.37115756 1.5230893 -1.0726935
C -0.32302865 1.1924126 -0.019612761
C -0.15361977 -0.22955424 0.21068212
N -0.16403477 -1.2002554 1.1065131
N 0.48639768 -0.675371 -0.85953075
O 0.95890504 0.43701267 -1.5896941
H -0.8337589 1.9475596 0.55376124
H 0.6250995 -1.6839575 -0.04720423
H -0.96711755 -1.3109366 1.7177789
