9

N -0.8845435 -0.57927 -1.2248667
C 0.23367077 -0.1462093 -0.554867
C -0.055269524 0.36961555 0.7895989
N 0.95828927 0.80283433 1.4848789
N 1.8385996 1.1745378 2.085808
O 1.3477756 -0.15339035 -1.0431837
H -0.70042753 -1.092541 -2.0730553
H -1.707364 -0.84559435 -0.70792353
H -1.0307306 0.47001696 1.2436107
