9

N -0.05259643 -0.24447018 -1.76969118
C -0.00758721 0.02080940 -0.52775840
C -0.83985291 -0.30698733 0.64065596
N -0.27533322 0.05702274 1.73365399
N 0.99263163 0.79119824 0.04960265
O 0.90191924 0.65075670 1.45755330
H -0.88548416 -0.77971981 -2.00221308
H -1.78703781 -0.82652213 0.64854943
H 1.95334093 0.63791201 -0.23035240
