9

N 0.02681881 -0.98210967 -1.4930105
C 0.03716589 -0.21161112 -0.48255464
C -0.93351203 0.1548374 0.5609054
N -0.38509965 0.85753596 1.4835587
N 1.139869 0.5484415 -0.11697517
O 0.9136869 1.0572006 1.186974
H 2.0588765 0.12479012 -0.14487797
H -1.9718325 -0.13659981 0.62488115
H -0.8859732 -1.412485 -1.6189009
