11

O -0.3185443 -1.5000571 -1.0583907
C -0.3150321 0.7356844 1.0813682
C 0.3285693 -0.590734 -0.34717274
C -0.14698888 1.1834749 -0.25835124
C 0.24661519 -0.5322123 1.141515
N 0.9899114 0.41764417 -0.9669388
H 0.8019491 0.39787385 -1.9676777
H 0.9322361 -0.9906168 1.8446003
H -0.8932412 1.6250967 -0.90956736
H -0.82724017 1.3026302 1.8548863
H -0.79823446 -2.048784 -0.41427118
