10

O 2.09776 0.04577028 -0.4407629
C -0.28667971 -0.6826137 -0.16219872
N -1.397909 0.20389323 -0.5450899
C 0.83411145 0.27432477 -0.09480975
C -0.96418667 0.6719738 0.7480534
N 0.32228926 1.3085865 0.46226823
H -0.6096779 -0.6164971 1.1105609
H 2.5975978 0.8528488 -0.25161487
H -2.26888 -0.31884518 -0.42357692
H -0.32442534 -1.7394415 -0.40282944
