12

O -0.15241372 -1.11950066 1.45163789
C 0.37680081 0.47823773 -0.24739954
C 0.91837782 -0.46807257 0.82004175
C -1.00432352 0.96268192 -0.02021008
N -0.69335265 -0.13315274 -1.06537184
H -0.63836871 0.02571871 -2.06935961
H -1.20467628 1.87356459 -0.59390661
H 1.13507972 0.97075312 -0.85941197
H 1.51223289 0.13220784 1.52506778
H -0.98594256 -1.06988093 -0.81264674
H -0.84444644 -0.42484134 1.48877608
H 1.58103278 -1.22771589 0.38278279
