9

O 0.7516383 0.2459761 -2.0791066
C 0.2633622 0.108710274 -0.8365871
N 0.9894761 -0.3149409 0.17608006
N 0.0797358 -0.28319764 1.1828716
C -1.1046453 0.1473413 0.7211757
N -1.0296489 0.40854385 -0.5672868
H 1.683318 -0.00786775 -2.0538156
H 0.34827575 -0.5608706 2.1124644
H -1.9815118 0.25630525 1.3442045
