11

N 0.24259022 -0.3290301 1.3099154
C 0.10679645 -0.0467119 -0.97583485
C -0.57258976 0.7049079 1.2665098
C 0.69362473 -0.89122176 0.044760704
C -0.7031391 1.0005586 -0.23025031
O -0.3631094 -1.3852805 -0.7488879
H 0.55821615 0.12754415 -1.9475108
H 1.6350766 -1.4302281 0.023560338
H 0.49957398 -0.7607634 2.18791
H -0.33593306 2.0180957 -0.42077357
H -1.7611065 0.9921294 -0.50939906
