12

N 0.11711723 -0.75583332 -0.90049881
C 0.29739828 -0.94812112 0.56507292
C 1.28552814 -0.00146300 -1.28189203
N 1.74940495 0.74505728 -0.36796674
C 0.82197086 0.46253066 0.71513488
N -1.85684747 0.48382036 0.40682604
C -0.54251014 0.11683673 0.16147911
H 0.93853874 0.95352686 1.67520987
H 0.18280568 -1.86662294 1.12807084
H 1.68446412 -0.09585941 -2.28662569
H -2.18429801 1.20942500 -0.22007616
H -2.49357195 -0.30329683 0.40526606
