12

N 0.53478235 0.8573606 -1.2426974
C 0.147057 -0.6906047 0.16516457
C -0.6759517 1.4211959 -1.1838557
N 0.35086423 -1.9656465 0.40122703
C 0.88593036 0.4784331 0.12225954
N -1.3926972 1.335776 -0.08265339
C -0.6230274 0.507755 0.71113473
H -0.875474 0.37836587 1.7650626
H -0.42732206 -2.6078374 0.4685357
H -1.0624244 1.9319326 -2.0643947
H 1.2799366 -2.3667023 0.38591376
H 1.8583262 0.7199716 0.5543032
