11

N -0.44911210 -1.53520764 -1.92000187
C 1.00547984 -1.01087825 -0.04747551
C 0.92707392 0.17525384 0.82717923
C -0.45358144 0.82848010 0.67466251
C -0.18233039 -0.80130130 -0.91389229
O -0.97215296 0.25429824 -0.52027074
H 1.71089345 0.79902010 0.35228756
H -0.42997502 1.91443714 0.55549584
H -1.11927608 0.57884896 1.50838757
H -1.30681609 -1.21510456 -2.36843261
H 1.26979686 0.01215378 1.85206061
