11

N -0.6541342 -1.3605002 -1.9915118
C -0.36887467 0.78399336 0.7723799
C 0.96170515 -1.032827 -0.20859075
C 0.9952111 0.08022448 0.75995016
C -0.28256568 -0.7188046 -0.95603555
O -1.0004766 0.32415107 -0.41761622
H 1.7609144 0.7171397 0.27310628
H 1.4117662 -0.17549641 1.7374629
H -0.97513884 0.4872309 1.635478
H -1.532559 -0.9799842 -2.3419254
H -0.31584802 1.874873 0.7373024
