10

C -0.16861568 1.24330511 -0.24322350
C -0.70891721 0.50299711 -1.35965007
N -0.01101050 -1.51369238 -0.12831279
N -0.55503763 -0.81610360 -1.14824323
C 0.45966360 -0.78164447 0.84492751
C 0.40182137 0.63260047 0.83428398
H -0.23061159 2.32763350 -0.28526035
H -0.89870536 -1.45029229 -1.86197139
H 0.90187740 -1.33094636 1.67178841
H 0.80953542 1.18614259 1.67566155
