10

C -0.9184737 0.6344278 -0.68387955
C 0.3921496 -1.102863 0.3449001
N -0.17968987 1.6159743 -0.22086526
N 0.8488041 1.2003055 0.53842854
C -0.6780813 -0.73474246 -0.4319491
C 1.2065035 -0.06339647 0.8601448
H 0.6154759 -2.1422632 0.5606411
H 1.8208022 1.1241686 1.1968598
H -1.7594721 0.9424433 -1.3007288
H -1.3480182 -1.4740546 -0.86355174
