10

C -0.22464253 0.9753343 -0.36916175
C -0.62935 -0.03840677 -1.2361242
N -0.4525545 -1.3354604 -0.98912734
N 0.1336751 -1.7118076 0.13748202
C 0.5410751 -0.78942865 1.0055875
C 0.38962495 0.5818909 0.8033243
H -0.39106196 2.0185444 -0.6163345
H -1.1187649 0.18465641 -2.1800334
H 1.0103962 -1.1819836 1.9036276
H 0.74160236 1.2966607 1.5407599
