12

C 0.08811383 -0.45364052 0.13789834
C 2.4473584 -0.8424413 0.29758012
N -0.7905387 0.49253857 -0.14825816
N 1.3778749 0.006197416 0.039972547
C -2.2211435 0.24074636 -0.1329462
O 3.600927 -0.49708238 0.2215574
H -2.6503828 0.3987053 -1.1264886
H -0.5158331 1.4386175 -0.40599203
H -2.7206626 0.9018975 0.58309084
H 1.6528958 0.95942897 -0.20800503
H 2.0983782 -1.8488611 0.57667816
H -2.3669877 -0.7961064 0.16491258
