12

C 1.75931939 -1.83181066 -0.58059406
C -1.81412958 1.17057954 0.58973663
N 1.18956349 -0.57964384 -0.38616995
N -0.47559877 0.79728033 0.16636110
C -0.10882851 -0.46762724 0.04528633
O 2.89201475 -1.99245941 -0.96395544
H 0.14978035 1.57365802 -0.04122960
H 1.82069262 0.20036723 -0.58375163
H 1.04659606 -2.63527611 -0.33762815
H -1.77473229 1.77417084 1.50268494
H -2.32119422 1.73972252 -0.19466482
H -2.36348352 0.25103869 0.78392441
