11

N 0.24541084 -1.51008359 2.34543896
C 0.21150068 -0.06893735 -1.26746788
C -0.26998302 0.88593415 -0.20771102
C -0.33718419 0.69126600 1.10976918
C 0.01904079 -0.52845680 1.77612267
O 0.90292739 -1.20332191 -0.83045551
H 0.90896884 0.47938168 -1.90823426
H -0.62389721 1.84363441 -0.58605525
H -0.72214088 1.47367304 1.75767629
H -0.65688462 -0.31568395 -1.90064953
H 0.32224120 -1.74740560 -0.28843340
