11

N -1.7991667 -1.4189126 1.6097667
C 0.09463749 0.90445757 -0.27187178
C 1.0819957 -0.15681165 -0.6787159
C -0.96532786 0.7826162 0.5279994
C -1.3919754 -0.4427527 1.1404452
O 1.0553356 -1.3555408 0.041156784
H 0.9664523 -0.30825916 -1.7648141
H 2.084538 0.2576851 -0.53449893
H 0.20309019 -1.7868475 -0.079937264
H 0.2726476 1.8837523 -0.71332806
H -1.6022266 1.6406133 0.72379786
