11

C -0.09677709 0.06034839 -1.06201990
C 0.07851616 -0.13937550 0.24371603
O -0.03316116 -1.04415090 -1.90135253
C 0.15052649 0.93659451 1.27531289
O 0.22457274 -1.39290382 0.75116577
H -0.19103447 1.04358106 -1.50829554
H -0.00085813 1.91849886 0.82171705
H -0.84012827 -1.08478744 -2.42580359
H -0.61168499 0.77538303 2.04502069
H 1.12731539 0.92155445 1.77045094
H 0.19271341 -1.99474287 -0.00991148
