11

C -0.108355254 0.9002054 -0.5802902
C 0.038686477 -0.19942175 0.3137591
O 0.24285844 0.025927179 1.523337
C -0.11209603 -1.6029403 -0.20841438
O 0.30238166 2.159585 0.2899479
H -0.73519564 1.9842339 -0.0033341919
H -0.894377 -2.114719 0.3604469
H -0.36437535 -1.6215888 -1.2714013
H 0.38024768 0.95882213 -1.5448866
H 0.82493603 -2.1434922 -0.044168722
H 0.42528886 1.6533887 1.1650046
