11

C -0.41139203 0.91586924 -1.1520346
C -0.07286437 -0.33319607 -0.37744194
O -0.052911222 -1.438378 -0.8786599
C 0.2785807 -0.18395376 1.092376
O 0.6551379 -1.4025216 1.6520157
H 0.5157345 1.337902 -1.5579023
H -0.87268645 1.679369 -0.5166591
H -1.0694916 0.6755294 -1.9903466
H -0.60069865 0.24147318 1.6043173
H 1.0839404 0.5621211 1.1845355
H 0.5466509 -2.0542147 0.93980026
