11

C 0.09340392 0.64891344 -0.8432563
C 0.058320787 -0.24817172 0.1414117
O 0.35987774 -1.5550175 -0.08527867
C -0.2854072 0.04940404 1.5628155
O 0.5373016 0.22690104 -2.089573
H -0.5466512 1.1027297 1.6855317
H -1.128856 -0.5696851 1.8864331
H -0.11459088 1.7027607 -0.69856006
H -0.13162898 0.4417123 -2.7485754
H 0.594671 -1.6159778 -1.0252892
H 0.56355894 -0.18356912 2.2143402
