11

C -0.51974875 1.136035 0.4771877
C -0.12760444 -0.23093143 -0.03312114
C 1.2601156 -0.7129495 0.03065213
O 0.28030685 -1.179992 0.9404763
C -0.9884122 -0.7774878 -1.0802726
N -1.6812 -1.171765 -1.9165914
H -1.5263479 1.1110563 0.9055358
H 0.18258765 1.4515173 1.2536693
H -0.5073282 1.8688685 -0.3346625
H 1.6140482 -1.4448726 -0.69337386
H 2.0135834 -0.049478672 0.45050046
