11

C -0.3379318 1.691243 0.9227519
C -0.088055156 0.08373256 -0.013490099
C -1.1768206 -0.29949975 -0.9137603
O 0.36265662 1.4031365 -0.25667495
C 1.0751796 -0.8880051 0.046497274
N -2.019008 -0.64009446 -1.6264937
H 1.7667266 -0.55334264 0.821698
H -0.5012897 0.1402704 1.0793025
H -1.3997074 1.8435447 0.5924093
H 1.5872291 -0.8797427 -0.9197812
H 0.73102117 -1.9012427 0.2675413
