11

N 1.06335154 -0.04498427 1.27130640
C -0.30114368 1.07896475 -0.52217309
C -1.19420737 -0.84535674 -1.29160114
O -1.89440753 -1.49935223 -2.02953783
C 0.11665659 -0.00203953 0.14624457
O -1.15423709 0.58688816 -1.46483622
N -0.37889457 -1.18599856 -0.26549800
H 1.38458148 0.88808507 1.52253828
H -0.12192878 2.14150298 -0.46824302
H 0.61402585 -0.48741158 2.07831554
H 1.86620375 -0.63029778 1.02348450
