12

C 1.400369 -0.29285514 0.8835911
C 0.33627096 -0.5042613 -0.1856267
C -0.5893859 0.6961482 -0.31854564
O -0.22054398 1.8369031 -0.11568885
N -1.8667339 0.396216 -0.7009568
H 2.1128802 -1.1226974 0.89065564
H 1.9409945 0.6390869 0.6962946
H 0.9497946 -0.22137086 1.8786955
H -0.24710481 -1.4124564 0.015047044
H 0.81245255 -0.64598244 -1.1642195
H -2.1418688 -0.5321475 -0.9684021
H -2.4871252 1.1634167 -0.91084415
