12

C 1.26738789 -0.63627419 -0.56457791
C 0.12125052 -0.11407943 0.17945035
C -1.22592954 0.07306380 -0.48558194
O 0.52321047 -1.46189697 0.32135855
N 0.41836255 0.69798139 1.32509145
H 2.26996863 -0.38569498 -0.22287058
H 0.53870280 1.66493668 1.03793372
H -0.36045227 0.67999093 1.97593287
H -2.02913947 -0.14716901 0.22779707
H 1.16239305 -0.87476715 -1.62369144
H -1.33710923 -0.60120057 -1.33929138
H -1.34864619 1.10510934 -0.83155062
