12

C -0.17486934 -0.25407052 0.52993286
C -0.49263754 0.41588232 -0.9820755
C 0.8051557 -1.1690127 -0.07513883
O -1.196182 -0.98038393 0.8145222
N 0.27244276 0.743104 1.4626759
H 0.6699579 -2.2229033 0.15081558
H 1.3920707 -0.92544264 -0.9602996
H 1.030618 1.3212928 1.1168841
H -0.51028615 1.3192929 1.7452495
H -1.3465679 1.0466249 -0.735883
H 0.3505288 1.0169631 -1.3308327
H -0.8002309 -0.311347 -1.7358507
