12

C 0.13995104 -0.19836026 -0.03138704
C -1.1880506 0.3161443 0.4823068
C 0.5261047 -0.032026544 -1.432499
O 0.03934777 -1.2743801 -0.9426401
N 1.2099372 -0.3440765 0.91418594
H 1.5249592 0.5722446 1.2192444
H 1.5848429 -0.022967134 -1.684914
H 0.87959856 -0.83110374 1.7413205
H -1.9217303 0.3789333 -0.32613912
H -0.1398049 0.4919782 -2.119236
H -1.5824965 -0.36414853 1.2466185
H -1.0726593 1.3077625 0.93313926
