11

N -0.42810562 0.82712543 -0.89913154
C -0.94648254 -1.3865062 0.07386078
C 1.0046846 0.26829156 0.69468325
C -0.1352678 -0.13437289 -0.029061995
N 1.3902416 1.4608595 0.2594103
N 0.5058546 1.7347096 -0.67863417
H 0.5406354 2.59604 -1.2005327
H -0.34115246 -2.272126 -0.14522766
H -1.7716371 -1.3477663 -0.63922966
H 1.5433382 -0.23682524 1.4843088
H -1.3621087 -1.5094297 1.0795547
