11

N -1.29734968 -1.41646222 1.10058103
C -0.01740627 0.02591225 -0.03544227
C 1.20814365 0.80217100 -0.39533341
N -0.08781859 -0.84738539 0.99883092
C -1.28230660 -0.04435216 -0.56975566
N -2.02611510 -0.92894050 0.14746920
H -1.69125406 0.48305460 -1.41887669
H 0.62702003 -1.10350177 1.66045652
H 2.01795173 0.14476796 -0.72737072
H 1.57207671 1.39394481 0.45097404
H 0.97705835 1.49079154 -1.21153299
