12

C 2.04835253 -0.35041694 0.11472898
C -1.56341456 0.23369542 -0.39216156
O 0.24819116 0.11339413 1.61570106
N -0.22136192 -0.02033628 -0.59311285
C 0.76377749 -0.10005281 0.37624701
N -2.34200483 0.28084285 -1.39386211
H 0.05823949 -0.13787973 -1.55489824
H -3.29210955 0.46676011 -1.09267128
H 2.38389865 -0.52338144 -0.90161999
H 2.78440984 -0.38660713 0.90983156
H -1.83566630 0.37239144 0.65569705
H 0.96768807 0.05159023 2.25612001
