12

C 0.5573557 -0.64742017 -1.8482933
C -0.082944214 -0.74151367 -0.4807246
O -0.60966486 -1.7447336 -0.052617386
N 0.008525329 0.4200763 0.26956385
C -0.47499534 0.5405794 1.5636083
N -0.3457602 1.6424344 2.1764007
H 0.13601556 -1.4242256 -2.4878688
H 0.40353787 0.33341494 -2.3101015
H 1.6366467 -0.81995237 -1.7577748
H 0.45244956 1.2441173 -0.114215426
H -0.93783265 -0.37672627 1.9332968
H -0.7433334 1.5739492 3.1087258
