9

O -1.2544144 0.03484682 -1.6159707
C -0.5106907 -0.1326494 -0.5144595
N -0.6759562 -1.1470227 0.28745094
O 0.25754708 -0.97541195 1.2942376
C 0.9498717 0.14136368 1.0556757
C 0.52648175 0.7431993 -0.07840219
H -1.8816216 -0.7008383 -1.6646165
H 1.7137523 0.38510367 1.7800105
H 0.8750303 1.6514088 -0.543926
