9

N -0.14736263 -0.5457422 0.08249352
C 0.03676416 0.53277606 0.9579927
N -0.13856924 0.3683802 2.2032728
C 0.039234076 -0.32988232 -1.1523033
O -0.11293545 -1.2843988 -2.06928
H -0.37880275 -2.08992 -1.5958587
H 0.3350657 0.6148411 -1.6183534
H 0.33126214 1.4920409 0.4984478
H 0.03534401 1.2419052 2.693589
