9

N -0.8065176 1.8456218 -0.12963687
C -0.10935129 0.81055874 -0.35080022
N -0.23843433 -0.3091338 0.4553934
C 0.4797723 -1.4714532 0.30088314
O 0.36702555 -2.4373662 1.0133542
H -0.59794575 2.5722177 -0.8052676
H 0.6294072 0.6793584 -1.147417
H -0.90492 -0.26109004 1.2172348
H 1.1809638 -1.4287134 -0.55374366
