9

O -1.01740688 -0.93971200 1.62613351
C 0.75141083 0.44221689 -3.75348959
C 0.09908602 0.28183585 -0.11624418
C 0.30982303 0.33453997 -1.29339556
C -0.16585444 0.13867302 1.32276583
N 0.54410978 0.39628209 -2.59449531
H -0.64246233 -1.74849634 1.25910841
H -0.67468777 1.03175073 1.69701044
H 0.79598184 0.06290984 1.85260629
