9

O 1.0692126 -1.7095964 -0.46265665
C 0.15741943 -0.7725362 -0.969836
C -0.28011912 2.5054674 1.5772997
C -0.03674985 0.38722068 -0.08780445
C -0.1787499 1.3111341 0.6745901
N -1.2435353 1.9003085 1.9489821
H 0.56256735 -0.4315841 -1.9263346
H -0.83036315 -1.2167267 -1.1723597
H 0.78031784 -1.9736872 0.41811955
