9

O 1.5986613 -0.85329443 -0.94616127
C -0.9319822 0.4480317 0.6670336
N -0.26823637 -0.84049547 0.6706857
O -1.6083107 -0.61194515 0.06186308
C 0.10452719 1.0206676 -0.26197186
C 0.6240638 -0.21430624 -0.31372243
H -1.3596203 0.8725757 1.5709075
H 1.590334 -1.7854772 -0.6849604
H 0.25056314 1.9642432 -0.76367396
