9

N -1.12747240 0.38417415 0.08488413
C 0.99059643 -0.04057719 -0.22643878
C 0.33219756 -1.08278658 0.46408557
C 0.00587869 0.89401299 -0.45428710
N -0.95191291 -0.81871456 0.64908892
H 2.03026860 0.01994485 -0.51219976
H -2.04500485 0.79775069 0.10353100
H 0.01931876 1.85779236 -0.94253546
H 0.74612995 -2.01159657 0.83387168
