9

N 1.1099931 -0.9808568 -2.1871002
C 0.89733475 -0.5102061 -1.1544535
C 0.61623615 0.054129243 0.15324718
C -0.7107814 0.6906333 0.3807962
N -0.39110175 -0.5775913 1.0028867
H 1.4899281 0.4282881 0.68106264
H -0.76959413 1.5410674 1.0540575
H -1.4057698 0.7084879 -0.45551562
H -0.8362452 -1.3539516 0.5250193
