11

C 0.5967266 0.7310753 2.2431967
C 0.30556425 0.16547638 0.92642075
C 0.075914636 -0.31435093 -0.15356602
C -0.14501098 -0.9682693 -1.4424617
O 0.32683387 -2.0526035 -1.7155467
N -0.9349604 -0.25967962 -2.2987108
H 0.46084678 -0.024534065 3.0224292
H -0.06256161 1.5750104 2.4653609
H 1.6312888 1.0800122 2.2861083
H -1.0417426 -0.61916274 -3.2336574
H -1.2128992 0.687026 -2.0995734
