11

C -0.03357688 -0.53294903 -1.1050694
C -0.043996066 1.2159845 0.5814963
C -0.7173856 0.08098724 -0.0043777265
C -0.42656088 -1.8018595 -1.3369728
O -0.21335436 2.2403376 -0.069254905
N 0.60876197 1.1488776 1.7769113
H 0.41709572 0.35993698 2.3754117
H 0.80899334 -0.082214884 -1.6313766
H 0.11811684 -2.4756014 -1.9931546
H 0.7891193 2.032529 2.2321522
H -1.3072133 -2.1860282 -0.82576525
