11

C 0.73016948 0.36499078 1.07346456
C 0.29922596 0.59156134 -0.28590076
C 0.10325580 -0.59318028 -1.06949329
C -0.69654868 -0.40041362 -2.13790483
O 1.93288396 0.14209481 1.14594835
N -0.10603057 0.49512960 2.14278527
H -0.97514573 0.98802834 2.00474309
H 0.34061714 0.60292611 3.04250666
H 0.45190738 -1.58505853 -0.77845253
H -1.10901525 -1.22072569 -2.71939941
H -0.97131933 0.61464726 -2.41829728
