12

O -1.2607455 -0.6593674 1.2386402
C 0.12775482 -0.4874248 1.1840404
C 0.5820386 0.70420676 0.34383368
O 0.85544616 0.4065683 -1.0465181
C -0.14942107 0.028768769 -1.8304036
O -1.2870567 -0.19167241 -1.4889557
H -1.5827824 -0.63455355 0.32164988
H 0.6599538 -1.3867692 0.82934743
H 0.45722035 -0.29986817 2.2120094
H 1.5486741 1.0729213 0.6950424
H -0.16322945 1.5041072 0.40309376
H 0.2121474 -0.056917064 -2.8617795
