12

O 1.2598764 0.34963354 -0.50469625
C 0.51868373 0.37504727 0.7380512
C -0.45444494 -0.78821725 0.91866463
O -1.7458144 -0.54849386 0.43101713
C 0.60042477 0.5356161 -1.6455097
O -0.5958262 0.6340673 -1.786242
H 0.0066514877 -1.6893115 0.4796297
H -0.55607903 -0.9679989 1.9947538
H -1.6508168 -0.1653732 -0.4576213
H 1.3143274 0.33730605 1.4855579
H -0.019522138 1.3247646 0.8155403
H 1.3225403 0.60296005 -2.4691453
