10

N -0.7609813 0.47651485 0.50405097
C 0.62498885 0.09630572 0.4227542
O -0.63430834 -0.6061504 -1.3419403
C 0.64288074 -0.58962435 -0.8014992
C -1.4237543 0.032595888 -0.5460135
N 1.4077574 0.4465958 1.3907514
H -1.1287414 0.9971292 1.2857031
H -2.472556 0.15034038 -0.7735349
H 2.3516936 0.12425703 1.2146909
H 1.3930209 -1.1279641 -1.3549626
