9

O -1.5337988 -0.58125705 -1.1267371
C 0.9218832 0.9397335 0.65575254
N 1.2353969 -0.30086303 0.9457729
N 0.28346625 -0.9936849 0.2592819
N -0.15786901 1.107449 -0.16487266
C -0.5197531 -0.1332107 -0.38331577
H 1.490692 1.7717389 1.047551
H 0.25548697 -2.0002632 0.2754445
H -1.9755045 0.19035731 -1.5088773
