9

O -1.74100080 -0.58965258 0.76233912
C -0.60228083 -0.14712926 0.22456645
N 0.55236113 -0.78908349 0.45522994
N 1.56519621 -0.15106775 -0.19634124
N -0.41992927 0.89378518 -0.55077800
C 0.92699859 0.83868780 -0.77476163
H -2.44912641 -0.00025911 0.46620193
H 0.72242837 -1.61659994 1.00344305
H 1.44535320 1.56131914 -1.38989976
