11

O 0.46147665 -1.094285 -2.3364053
C 0.8079288 -0.1476213 -1.6615657
C 0.26585242 0.107356094 -0.33593914
C 0.47369218 1.0732725 0.6232394
N -0.30933005 0.83778226 1.7143167
C -0.98675454 -0.25729626 1.426686
N -0.67671967 -0.7357227 0.20502709
H 1.5609416 0.5793757 -2.0186532
H 1.1442432 1.9206029 0.5809337
H -1.7086095 -0.73282653 2.0754278
H -1.0327212 -1.5506377 -0.27306783
