11

N -1.5174508 -0.45273617 1.7357793
C 0.3346243 0.6631274 -1.2127318
C -0.6114906 -0.22312392 0.8830824
C 0.045478128 -0.5905768 -0.39196226
C 0.7719018 0.2095606 0.7383105
O 0.9086686 1.3608432 -0.08791288
H -2.2692208 -1.0012987 1.3115325
H 1.5942538 -0.051385265 1.3958192
H -0.51892835 1.2006792 -1.6434443
H 0.16149482 -1.6083376 -0.7501109
H 1.100669 0.4932482 -1.9783616
