11

N 1.9108099 -2.004221 1.06991
C 1.241714 -1.3756562 0.36890203
C 0.19904655 0.81700236 0.14018844
C -0.9586913 1.1842929 0.6683945
C 0.42813376 -0.5217448 -0.5291139
O -0.74969333 -1.2271068 -0.82755667
H -1.8217603 0.5259654 0.6602444
H -1.2722194 -0.66315955 -1.412713
H 1.0322407 -0.36696488 -1.4366052
H -1.0756855 2.1555796 1.1403738
H 1.0661048 1.4760123 0.15797558
