11

N 2.04681635 -0.57994663 2.07050914
C -1.24717133 1.09147115 -0.14712033
C 0.02561984 0.78076311 -0.34134717
C 0.59172921 -0.60734216 -0.12833432
C 1.39417136 -0.61363499 1.11808339
O -0.37992456 -1.61501293 -0.00846416
H -1.60795933 2.10274210 -0.31147677
H 1.29277684 -0.83495358 -0.94636105
H 0.74750984 1.52501966 -0.67504990
H -0.89675433 -1.60306003 -0.82468842
H -1.96681380 0.35395421 0.19424912
