11

N 2.4725194 1.4298658 0.41382343
C 0.22439723 0.62020916 -0.7483
C 1.4940646 1.0638659 -0.084460974
C -0.21963482 -0.85188454 -0.20485885
C -0.85565567 -0.52170473 1.0296075
O -0.83558846 1.325923 -0.46224162
H -0.93505657 0.5079515 1.3528509
H 0.4768779 0.48083407 -1.8166882
H -0.9709734 -0.9791148 -1.0000681
H -1.2324587 -1.3054255 1.6875772
H 0.38150838 -1.7705199 -0.16724138
