11

N -0.14513305 -0.3488344 -1.0523162
C 0.87080014 -1.1991718 -0.70946515
C 0.6434677 0.1253493 0.9510123
N -1.4137204 1.3959928 0.014295226
C -0.3502427 0.5367176 0.0025822402
N 1.362788 -0.94688267 0.46870852
H -1.0144117 0.11299549 0.9094881
H -0.73481333 -0.36801288 -1.8684978
H 1.2030904 -1.9920026 -1.3677478
H -1.2652143 2.0959842 0.74295974
H 0.84338915 0.5878648 1.9089807
