9

O 0.915301 0.35366106 -1.5123425
C 0.82501954 0.07898829 0.9266992
N -1.2682769 -0.46314898 1.1304444
N -0.1742343 -0.26562712 1.7822431
N -0.98807466 -0.25082144 -0.17757584
C 0.30589873 0.092141405 -0.34213978
H 1.8287154 0.29797673 1.2552389
H 0.27118108 0.55307853 -2.202382
H -1.7155299 -0.3962486 -0.86018544
