10

C 0.064254016 -0.81849515 0.049514975
C -0.39737153 1.0195085 0.40202805
N 0.9592602 1.2688106 0.47696295
C -0.82119167 -0.25367886 -0.96870786
N -0.987546 1.0348493 -0.84793204
C 1.2254107 -0.009313253 0.42601243
H -0.992672 0.88577616 1.3053509
H 2.2165923 -0.4099881 0.63225186
H -1.2967781 -0.835646 -1.7560449
H 0.030042246 -1.8818234 0.28056368
