10

C -0.95618019 0.53954638 -0.55611048
C -0.69359064 -0.71188851 -0.95589058
N 0.00552923 -1.11192916 0.23994712
C 1.32101833 0.32245170 0.60908818
N 1.45692449 -0.85872090 0.13051906
C -0.17989260 0.30741697 0.71691255
H -1.53243956 1.37594547 -0.92530201
H -0.86675259 -1.33882889 -1.82149828
H 2.10490542 1.02213174 0.87555157
H -0.65952187 0.45387485 1.68678296
