10

O -0.5617444 -1.8792707 -0.79043305
C 0.21178393 -0.9908553 -0.04718768
C -0.31516257 0.4194568 -0.14525865
O -1.2911077 0.6901562 -0.80943793
C 0.4021519 1.5259985 0.609261
O 1.3741609 1.3176364 1.2851406
H -1.2626604 -1.3573269 -1.2079313
H 0.23761103 -1.2707217 1.0166233
H 1.2584567 -0.98441464 -0.38746268
H -0.053489286 2.5293412 0.47668648
