10

O 0.46615532 -1.67552391 -0.51197902
C 0.20134325 -0.37820311 -0.22158207
C -1.01159846 0.36173307 -0.53524186
O 0.25454615 0.53906669 -1.23823136
C 0.68680887 1.01554493 1.57757188
O 0.97664308 -0.09553454 0.94618350
H -1.79342236 -0.10956956 -1.13012164
H 1.42227427 1.00205899 2.41009749
H 0.08738910 -1.86860359 -1.38097494
H -1.29013912 1.20903088 0.08427811
