10

O -0.27774373 1.6418482 0.1511728
C -1.091639 1.2765385 -0.7800757
C -0.054850873 -0.85253155 0.50793314
O 1.3315663 0.44342807 -0.9978699
C 0.35134163 0.36749253 -0.300936
O 1.085226 -1.5033325 0.9881339
H -0.66381395 -0.54817635 1.3637841
H -0.65509564 -1.5003409 -0.14719117
H -1.786632 2.0801785 -1.0846204
H 1.7616414 -1.4051043 0.29966918
