9

O 2.5022182 -0.3070586 -0.048336018
C 1.4259638 0.21884787 -0.1334512
C 0.21043034 -0.23180667 0.6650043
C -1.0238212 -0.09351676 -0.106495336
C -2.0112076 0.036026716 -0.7782115
H 1.2558795 1.0961556 -0.79132974
H 0.1603221 0.3971245 1.5638342
H 0.3730289 -1.2617484 1.0000478
H -2.8928137 0.1459757 -1.3710626
