15

N -0.4729701 -2.2376122 1.2948675
C -0.3198561 -0.9249905 0.9001624
O -0.8019952 -0.001279754 1.5463353
N 0.41489258 -0.7597632 -0.24345186
C 0.93413377 0.54092866 -0.6716282
C -0.13566731 1.5835795 -1.0147685
O -0.6087933 2.3044682 0.08970334
H -1.1814445 -2.347847 2.0061154
H -0.47145867 -2.957492 0.58958477
H 0.9692519 -1.5552797 -0.5242557
H 1.5299098 0.33948842 -1.5681375
H 1.6007736 0.96795624 0.089895986
H -0.9434355 1.0838519 -1.5731913
H 0.31550577 2.3224268 -1.6877348
H -0.828847 1.641565 0.76650286
