15

N 1.6790369 1.4345812 0.47600225
C -0.5058838 -1.3528998 0.0930743
O -0.95034504 0.8398014 -0.72968185
N 0.75098443 -0.69570386 0.44906783
C 0.5977089 0.6397879 0.66035086
C -1.1437055 -0.4923792 -1.0255184
O -0.34267306 1.097593 1.4702402
H -0.29734477 -2.3862443 -0.20002064
H -1.1386567 -1.3627721 0.9869525
H 2.29707 1.232311 -0.29140395
H 1.4848447 2.4091508 0.64725983
H -2.2075515 -0.7688752 -1.1115229
H 1.5179375 -0.9330289 -0.16367215
H -1.0698787 1.1074587 0.7295037
H -0.6715431 -0.7687809 -1.9906317
