10

O -0.00644450 -1.00149554 -0.43125403
C 1.20225333 -0.47497067 0.09232780
C -0.91982272 -0.02315002 -0.79511424
O -2.66608225 0.75727185 0.78455190
C -1.83995192 0.37516480 0.05757380
O 1.01592426 0.13462458 1.32274122
H -0.91684112 0.36352221 -1.80821716
H 0.64022112 1.01299103 1.17674472
H 1.83914007 -1.34678368 0.24885951
H 1.65160395 0.20282584 -0.64821346
