10

O -0.14881206 -2.1117263 1.8473088
C -0.26734444 1.195907 -1.398443
C 0.4116977 -1.1247405 1.5091981
N 1.2939322 -0.9886709 -0.34377503
O 0.8057721 0.95433784 -1.9437746
C 0.2149975 -0.5103014 0.014347786
C -0.7360328 0.4586833 -0.2575017
H -1.6717514 0.5936964 0.26092583
H -0.93666804 1.9811896 -1.7908363
H 1.034209 -0.44837505 2.10255
