12

O -0.6629338 -1.4511782 0.8811396
C -0.05880517 -0.22430226 1.199674
C 0.44406298 0.45285928 -0.073364995
O 1.3269362 -0.42513028 -0.7193123
C -0.7137529 0.7736931 -0.9969269
O -0.7253218 0.38139898 -2.1378322
H -0.024986012 -1.9061912 0.31126842
H 0.7888846 -0.34425864 1.8892137
H -0.81524104 0.39600626 1.6931182
H 0.9385308 1.4048977 0.1832546
H 1.0291415 -0.46034807 -1.6447664
H -1.5265154 1.4025531 -0.58546555
