12

O 0.33443326 0.837471 1.2827648
C -0.3068442 0.63597983 -0.9963593
C 0.3962273 -1.3516442 0.35185072
O 0.13234365 -1.763751 1.4559101
C 0.6171625 0.12556954 0.10834624
O -1.6497251 0.49349016 -0.61017334
H -1.7081956 0.8843933 0.27416527
H 1.6680386 0.2594609 -0.20032895
H -0.16627921 0.054503363 -1.9148749
H 0.21756053 0.16755475 1.979003
H -0.043756425 1.6821485 -1.2101381
H 0.5090347 -2.0251763 -0.5201654
