10

O 1.3160462 -0.9160016 0.4921893
C 0.4060249 0.13525832 0.36477992
C 0.008333528 0.44509217 -1.0796144
O -1.3875737 0.18076847 -0.76317585
C -1.0838357 -0.20696688 0.50598985
O -1.8070757 -0.65283906 1.340337
H 1.3256913 -1.1975158 1.415522
H 0.68436706 1.023308 0.9502571
H 0.39142716 -0.28008017 -1.7994306
H 0.14659473 1.4689765 -1.4268544
