10

O 1.73983427 -0.67542224 0.09306145
C 0.48279011 -0.14283730 0.12540314
C -0.62503840 -0.25564428 -0.61819036
O -1.16044039 -0.96970031 -1.60115184
C -0.19289669 1.05128239 0.76947141
O -1.35036872 0.77229093 -0.09231181
H 1.87834639 -1.20447811 0.88927244
H -0.48706900 0.98210025 1.82050938
H -0.49882337 -1.59608141 -1.92115165
H 0.21366557 2.03849001 0.53508776
