10

O -0.42060512 -2.0753844 -0.18724951
C -0.3745838 -0.7777773 -0.4390066
C -0.9275827 0.36766654 -0.7326718
C 0.56851625 0.33023888 -0.58526695
N 1.2368068 0.95921636 0.5554309
N 0.62547916 0.80769885 1.623653
H 1.1714368 1.3155155 2.333773
H -1.7665447 1.011205 -0.91951513
H 1.233184 0.41913205 -1.4486078
H -1.3461063 -2.3575118 -0.20053898
