10

O -0.7900678 0.7609563 -1.8551067
C -0.21680833 0.11150677 -0.8199511
C 0.27258626 -1.048068 -0.5302483
C 0.20242402 0.748174 0.41496524
N 0.03008261 -1.1724823 1.7373438
N -0.07582289 0.05522506 1.6068554
H 0.85760224 1.6171092 0.4562203
H 0.74830496 -1.9928699 -0.6984132
H -0.53853667 0.29550618 -2.666013
H -0.48976433 0.6249426 2.3543472
