10

O 0.023280418 0.32270482 2.0233881
C -0.024448019 0.116833694 0.6894592
C 0.8897515 -0.2862426 -0.2557874
C 0.14428265 -0.2784291 -1.4613314
N -1.1090533 0.09451778 -1.2783214
N -1.1918283 0.33239943 0.049242847
H 0.91613394 0.13640009 2.3354537
H 1.9269813 -0.5464984 -0.10264907
H 0.4849706 -0.5339461 -2.4546359
H -2.060071 0.6422604 0.45518124
