10

O 0.24939334 -1.93760487 -0.83826110
C 0.07040877 -0.63157671 -0.73084253
C 0.66403717 0.56274497 -0.13106700
C -0.56621426 0.47781368 -0.99171164
N 0.57301103 0.86120591 1.29933568
N -0.38730627 0.30600514 1.85370044
H -0.36186402 0.61564443 2.83537967
H 1.59534754 0.99902342 -0.50169449
H -0.46850831 -2.30220916 -1.37492286
H -1.36830519 1.04895320 -1.41991626
