11

C 1.5478079 2.1168523 0.13737704
C -0.29456472 0.24850078 0.22642569
N 0.69711506 1.3055494 0.15797238
C -0.39429772 -0.4417531 -1.1276796
N -0.009883025 -0.70796007 1.2668564
H -1.2453738 0.7321592 0.4696915
H 0.8812852 -1.1618543 1.0818313
H 0.071316175 -0.24393588 2.1643982
H -1.1749953 -1.2051342 -1.083979
H -0.6354091 0.2807008 -1.911935
H 0.5569997 -0.92312497 -1.3809593
