10

N 0.65174097 1.5238447 0.72916526
C 0.16080482 0.33394504 0.20647432
N 0.7764218 -0.8275036 0.40928537
N -0.031081663 -1.702527 -0.17504108
N -1.1062163 -1.2204517 -0.7502688
C -1.0197749 0.087869585 -0.5239472
H 0.17240037 -2.6885574 -0.1738681
H -1.7825527 0.76851654 -0.8734164
H 1.6041534 1.4161409 1.0529699
H 0.57410425 2.3087227 0.09864677
