10

O -0.09027679 1.6562907 -0.45221075
C 0.5088789 -0.7447466 -0.41463262
C -0.8981418 1.4644854 0.43871123
N -0.3258656 -0.8329772 0.5527748
O 2.4240625 -0.85818124 -1.972815
C -1.0502224 0.13764325 1.0261861
C 1.5520328 -0.9676073 -1.1573445
H -1.5427539 2.2696593 0.8253697
H 1.1700348 -2.0526595 -0.6777369
H -1.7477485 -0.07190659 1.8316977
