10

O -2.3873239 0.95634073 0.40629783
C -1.7674254 -0.056309186 0.6268192
C -0.3569251 -0.22694421 0.21271485
N 0.27624112 -1.3447741 0.46595335
O 1.5364314 -1.1754735 -0.03269193
C 1.6363404 0.051455803 -0.5789206
C 0.46955568 0.71848893 -0.46314475
H -2.2057817 -0.92322826 1.1546628
H 2.6012924 0.29011947 -1.0051451
H 0.19759502 1.7103244 -0.7865457
