11

C 0.5331622 1.1341418 -0.9427564
C -0.24964894 0.16238596 -0.112409465
C 0.16917269 -1.1259648 0.15796326
O -1.6772196 0.16098356 -0.0886183
C -1.0798664 0.61597794 1.1179702
N 0.48979604 -2.2881653 0.26338574
H 0.031216372 2.100364 -0.8738735
H -1.2310671 -0.17829166 1.8822542
H 0.8873938 -2.6318934 1.1355915
H 1.5491669 1.2360157 -0.5521175
H 0.577894 0.8144464 -1.9873897
