11

C 0.27516478 0.34912056 -0.27990392
C 0.48732367 -0.9928346 -0.9240994
C -1.1191192 0.8181798 -0.28586322
O 1.4249055 1.0058905 0.20778336
C 0.35631534 0.65970415 1.1398457
N -1.9819674 0.45938188 0.47722363
H 1.4257312 -1.4094725 -0.55265415
H -0.34289938 -1.6600592 -0.6795802
H -1.0600266 0.021590814 1.4256593
H 0.5448933 -0.88557076 -2.0106814
H -0.010321185 1.6340693 1.4822701
