13

C 0.58322334 -1.584487 -1.166021
N 0.23103988 -0.64320755 -0.12654532
C -0.05241784 0.6600033 -0.3793517
O -0.078063995 1.1733086 -1.483778
C -0.33438435 1.4767203 0.87829477
O -0.563716 0.69199127 2.0361404
H -0.11542343 -2.426026 -1.1841074
H 0.5356953 -1.0559641 -2.1185226
H 1.5990602 -1.9667271 -1.0217422
H 0.27000636 -0.9122803 0.84564143
H -1.1659081 2.1557522 0.65120375
H 0.5502977 2.088911 1.0829465
H -1.4594094 0.34200525 1.9858414
