13

C -1.1969064 -0.046943456 0.30345598
N 0.7625763 -0.2797831 -0.99253315
C -0.5472905 0.36530456 -0.87257135
O -0.8430657 1.2592192 -1.6498127
C 1.0393705 0.61874956 0.8665579
O -1.0128831 -1.3409182 0.81646514
H 0.7732664 -1.2844027 -0.867098
H -1.6716008 -1.9101067 0.3894623
H -2.1411922 0.43341184 0.5549634
H 0.60512066 1.583868 1.093076
H 0.8794401 -0.15606207 1.612638
H 1.2756338 0.056933325 -1.8008642
H 2.0775309 0.70072997 0.546261
