13

C 0.83403219 0.31861689 -1.03835064
N 0.13324179 -0.73572699 -1.52745789
C 0.54164492 0.66520461 0.42074944
O 1.65409778 0.94137139 -1.68706555
C -0.84403669 0.31044880 0.95124746
O -1.11707676 -1.08600058 0.95766170
H -0.44105405 -1.51618482 1.49814716
H 0.30614926 -1.02248542 -2.47920149
H -0.50234638 -1.26013292 -0.93890978
H 1.30453917 0.16727344 1.03694142
H -1.61643855 0.75837528 0.31797743
H 0.71600712 1.73950692 0.52515298
H -0.96876015 0.71973329 1.96310778
