11

C -0.68416151 0.98334096 0.66028819
N -0.86941757 -0.18828476 -0.19077296
C 2.40435459 0.16716567 -1.04260175
C 0.25462906 -1.07349981 -0.21946318
N 1.47898763 -0.44968513 -0.67441451
H -1.11156321 0.08802925 -1.13478506
H -0.52607870 0.65273798 1.69316329
H 0.43653835 -1.45985446 0.78986712
H -1.59738735 1.58340561 0.63537134
H 0.16696513 1.61360544 0.36534950
H 0.04713325 -1.91696071 -0.88200188
