11

C -1.1445341 -0.3118438 0.7053505
N -0.056736276 0.6585449 0.6394459
C 1.1043061 0.18409058 -0.0816806
C 0.8320205 -0.17266293 -1.497634
N 0.55429965 -0.42087877 -2.5906968
H -1.5142887 -0.6389683 -0.27806687
H -1.9753765 0.12977286 1.2618344
H -0.80530715 -1.1958141 1.2578932
H -0.38611114 1.5221077 0.22143005
H 1.887421 0.9485632 -0.062125437
H 1.5043063 -0.7029113 0.42424977
