10

N 0.6056644 -0.8062996 1.5053009
C 0.01482079 0.17006305 0.7425113
O -0.39867634 1.2176489 1.1874663
N -0.10279154 -0.17553024 -0.60568076
C -0.63967377 0.67244095 -1.558974
O -0.76988393 0.3433834 -2.713227
H 0.82954735 -0.51669526 2.4454787
H 1.2495426 -1.4548664 1.0795503
H 0.1345232 -1.1007556 -0.93376535
H -0.9230728 1.6506108 -1.1486598
