10

O 1.1048466 -0.5429458 1.4651533
C 0.36668932 0.39259574 1.2271869
C 0.16076295 0.53803164 -1.3478317
C -0.49381676 0.44147202 0.013014905
N -0.34147322 -0.7974047 -0.7477598
H 1.2485155 0.49210042 -1.1783794
H 0.26918015 -1.455262 -0.26130292
H 0.35018235 1.294783 1.8639455
H -1.1631856 -1.1945226 -1.1770184
H -1.5017011 0.8311524 0.14299181
