10

O 1.8320771 -0.15981783 0.7779188
C 1.1363704 -0.81037325 0.032397155
C -0.117664866 -0.2679496 -0.56035817
C -1.0602646 0.38631985 0.3949591
N -0.29337835 1.1796594 -0.53883237
H 1.3974061 -1.850297 -0.24768233
H -0.5070765 -0.7831404 -1.434765
H -2.1274998 0.32397223 0.19374199
H -0.7707568 0.39718285 1.4428792
H 0.5107875 1.5844437 -0.06025848
