11

C -0.41032138 0.91733253 -1.1517164
C -0.07557374 -0.33291343 -0.378296
O -0.05912704 -1.4380969 -0.8799231
C 0.279186 -0.18533932 1.0922873
O 0.656119 -1.4033703 1.651163
H 0.518455 1.3393663 -1.5546101
H -0.87084955 1.6806215 -0.51527375
H -1.0679909 0.67835474 -1.9911205
H -0.60030013 0.23856354 1.6061152
H 1.0836784 0.56220907 1.1826801
H 0.54672444 -2.056728 0.93869406
