9

N -0.80643994 1.8460828 -0.13059388
C -0.10853995 0.81135285 -0.35017952
N -0.23484531 -0.30761385 0.45862964
C 0.47890577 -1.4721963 0.30030647
O 0.36093888 -2.440015 1.01022
H -0.5954435 2.573812 -0.80447775
H 0.6285265 0.6812475 -1.1486238
H -0.90359503 -0.2615638 1.2186786
H 1.1804924 -1.4311062 -0.5539596
