9

N -0.07321967 0.72237862 1.27076158
C -0.34466318 0.83072642 -0.05142401
O -0.69864846 1.83860879 -0.62094794
C -0.15713186 -0.44424471 -0.80477778
C 0.07997058 -0.84983310 -2.06084083
C 1.16978102 -1.72543535 -1.03709141
N 0.14625084 -1.74278490 -0.24766544
H 0.08332973 -0.17212579 1.70857797
H -0.20566915 1.54270992 1.84340767
