10

O -1.0183507 -0.5831185 -1.2899511
C -0.80499214 0.3234758 -0.17584461
C -0.3022817 -0.651104 0.94718194
C 0.26710376 -0.06917246 -1.2037926
O 1.2756196 1.0230453 0.5447835
C 0.8196334 -0.13851932 0.12619379
H 0.6641292 0.5923791 -1.9672159
H -0.6706683 -1.6627632 0.8084278
H -0.2960221 -0.2695148 1.963706
H 0.06582906 1.4352919 0.24651088
