10

O -0.8626094 -0.29048833 1.5726978
C -0.14490286 -0.019819748 -0.5369786
C 0.50720716 0.14351454 1.2807571
C 0.805135 -0.91578126 0.14767247
O 0.14365879 0.5255397 -1.713097
C -0.8683378 0.5609884 0.50205195
H 0.47698528 -1.9144008 0.42250106
H -0.4135019 1.3049086 -1.8638276
H -1.435973 1.4904052 0.5057345
H 1.792339 -0.8848662 -0.31751147
