10

O 1.7545806 -1.1292728 1.0099336
C 0.80290437 -0.6122991 0.5004225
C 0.5039063 -0.08570519 -0.932035
C -0.72234994 0.58301336 -0.30691266
O -1.5196843 -0.46458977 0.20136948
C -0.4710346 0.026271421 1.035947
H 0.28827617 -0.81898373 -1.7103295
H 1.2949536 0.596506 -1.2613895
H -1.199163 1.521581 -0.56278515
H -0.7323895 0.38347873 2.0257795
