11

N 1.37489015 1.02489986 1.30535753
C 0.23471510 0.52601529 0.65219125
C -1.10189997 0.72263786 0.85552233
O -1.66255702 -0.16443106 -0.23205110
C -0.70760446 -0.72362707 -0.88661075
O -0.90234018 -1.55285816 -1.90232075
N 0.47213553 -0.38139879 -0.43934705
H 1.47127595 2.02452460 1.16328272
H 1.31219756 0.86512239 2.30362959
H -1.85613718 -1.64054691 -2.03991161
H 1.36532480 -0.70033775 -0.77974228
