11

N 0.9478882 1.1445177 1.1211258
C 0.117101654 0.32379463 0.35768774
C -1.2044963 0.12810673 0.31181383
O -1.5107238 -0.7293237 -0.7378387
C -0.34780404 -1.0899433 -1.3597553
O -0.27438122 -1.8042415 -2.322411
N 0.6638468 -0.47140595 -0.65380514
H 1.6174829 0.6190538 1.6711284
H 0.42066637 1.7563484 1.7287017
H -2.0249972 0.49736524 0.90502095
H 1.5954169 -0.3742718 -1.0216684
