11

N 0.4851802 -0.5705378 -0.022127608
C -0.5517258 -1.0731847 0.5952244
C -1.1039389 1.1097281 0.13464734
O -0.6220606 -2.3250246 1.02553
C 0.14751287 0.7973153 -0.31569755
O -1.5006717 -0.2176077 0.73865587
N 1.1307563 1.552104 -0.9782966
H -1.4862515 -2.4513614 1.4421382
H 1.3222859 2.4092028 -0.47361416
H 1.3505281 -1.040865 -0.23506743
H 0.8283855 1.8102311 -1.9113922
