11

O -1.469646 1.6324059 1.268893
C -0.75013727 0.84302235 0.69124126
N -0.75879735 0.5593439 -0.65309095
C 0.22289902 -0.42847767 -1.0338885
C 0.87195325 -0.7473906 0.28808644
C 0.32335696 -0.026098855 1.2647617
H -1.3948141 1.0136648 -1.2855936
H 0.9519893 -0.03250946 -1.7528002
H -0.23658787 -1.318923 -1.4818884
H 1.6730971 -1.4720739 0.37512428
H 0.56668675 -0.02296302 2.319155
