10

O 1.1313257 -0.9941419 0.3170647
C -0.39270577 -0.71972716 -0.39825588
O -1.1891882 -0.2759385 0.6109012
C -0.24866563 0.76590997 1.0140429
C 0.77074474 0.23301189 -0.03988362
C 0.29828665 0.4489541 -1.3560694
H 0.04198675 0.6180964 2.0538356
H -0.60985625 -1.6263661 -0.94763213
H 0.84635997 -0.20412084 -2.0498314
H -0.64828795 1.7543222 0.7958283
