10

O 0.031635933 -2.555766 0.51491296
C -0.23928413 -1.9916657 -0.5119292
O -0.23579895 -0.66734725 -0.6974738
C 0.1346905 0.09606258 0.46341863
C 0.10477966 1.5121049 0.11291605
C 0.089891784 2.687224 -0.13741311
H -0.5327854 -2.486492 -1.4488838
H -0.5643382 -0.11990807 1.2780519
H 1.1352848 -0.2044805 0.7914087
H 0.0759241 3.7302687 -0.3650082
