10

O -0.07037213 -1.38231108 -0.01976872
C -0.34350627 -0.63450252 -1.10656456
O 0.38172255 1.96118767 1.02963668
C 0.27267503 -0.48226502 1.03925932
C 0.16959092 0.92624459 0.44235656
C -0.23753922 0.69462437 -0.95201073
H -0.61789347 -1.20972670 -1.98538917
H -0.42950328 -0.62503471 1.86546775
H 1.28633619 -0.70904213 1.38072734
H -0.41151021 1.46082619 -1.69371436
