10

C 0.6154252 -0.66751623 -0.9976625
O 1.9134892 -1.1079115 0.90055436
C -1.2296847 0.40496108 0.704265
O 1.2823594 0.29942 -1.5777369
C 0.8899273 -0.6181984 0.48485395
O -0.086410925 -0.21137995 1.3003771
H -0.9532768 1.3501015 0.2235441
H 1.1897571 0.20130241 -2.5371294
H -1.7041198 -0.25290465 -0.028926488
H -1.917466 0.60212576 1.5278605
