10

O 0.59772911 1.40230710 -0.02133617
C -0.40305701 0.49737279 -0.58788187
O 1.65219012 0.70558899 1.88079851
C 0.89861100 0.54645122 0.97495211
C -0.02899213 -0.56864697 0.51061849
C -0.02936294 -0.33553742 -1.68217292
H 0.51500399 -1.45421196 0.16247709
H -0.85365989 -0.84361347 1.16987594
H -1.39636398 0.94285289 -0.46364152
H -0.95209865 -0.89256289 -1.94368958
