10

O 1.0566796 0.9982631 0.45945564
C 0.22849844 0.5279223 -0.65155673
O 0.5296808 0.21161431 2.5376463
C 0.7157171 -0.53685474 -1.4637928
C 0.3837414 0.2534587 1.3583606
C -0.535469 -0.42058256 0.34830225
H -0.064600214 -0.683878 -2.2381303
H -0.33772907 -1.4938414 0.2464497
H -0.3716824 1.3642994 -1.0267943
H -1.6048366 -0.2204013 0.43005967
