11

N -0.82136303 -1.1133646 1.178464
C 0.2557752 -0.2674812 -1.453013
C -0.32313326 0.20079882 1.5341783
C 0.7606776 0.67988235 -0.68557864
C 0.40029112 0.9536797 0.7138644
N -0.2610462 -1.0433836 -2.2392526
O -1.9213454 -1.0660022 0.6747491
H 1.5178949 1.3031456 -1.150126
H 0.7869978 1.8888321 1.1124965
H -0.5146406 0.45566913 2.574207
H 0.11989191 -1.9917763 -2.259989
