11

N 0.9639904 0.46703017 -2.1421819
C 0.5797425 0.24294533 -0.95863557
C -0.79854834 -0.11892768 -0.64202654
C -1.150562 -0.34287602 0.6250007
C -0.12378705 -0.20925288 1.6438165
N 1.0978737 0.10298737 1.418162
O 1.4638357 0.3341755 0.1021088
H 1.9558527 0.70158696 -2.1670556
H -1.4786025 -0.1872374 -1.4833659
H -2.159993 -0.615707 0.9122217
H -0.3498024 -0.37472445 2.6919553
