11

N -1.5413616 0.003081246 1.8428066
C -0.75576186 -0.041327402 0.8568988
C 0.9681057 0.65760595 -0.40144488
C -0.6411782 -0.9492364 -0.31931585
C 0.3756005 -0.53480226 -1.0619718
N 1.9495493 1.3255354 -0.8080396
O 0.24958429 0.9083827 0.74575746
H 2.1600049 2.0945103 -0.17225298
H -1.3071616 -1.7875181 -0.48146972
H -2.2247112 -0.746955 1.787266
H 0.76732963 -0.92927647 -1.9882343
