11

N -0.45412393 0.64796079 1.77616922
C -0.34071815 0.33738700 0.54426502
C 0.42051730 -0.88429069 0.04105744
N -1.00793700 1.03172785 -0.42550785
C 1.44620499 -0.50030808 -2.31523702
N 0.99888162 -0.68693243 -1.24797753
H 0.04345623 -0.00912200 2.37093474
H -1.41923465 1.90160371 -0.11266482
H -0.63078512 1.03141935 -1.35987400
H -0.27143333 -1.73253869 -0.01808267
H 1.21517203 -1.13690693 0.74691769
