12

N -0.63959766 0.21924102 -1.59267469
C 0.59327888 -1.24010346 0.09016270
C 0.34685009 0.13965614 -0.54069158
O 0.33611695 -0.69366154 1.41504788
C 0.00200878 0.53185384 0.88959488
N -0.47137164 1.55603094 1.43759735
H -0.15135465 -1.99595265 -0.17194146
H -1.54346954 -0.09123599 -1.24123577
H -0.59143473 1.41970308 2.44212729
H 1.60415115 -1.64783555 0.02672360
H 1.27134034 0.61902079 -0.87367465
H -0.75651799 1.18328305 -1.88103522
