11

O 0.98493651 0.92869188 1.40288928
C -2.07582085 0.76854168 1.63584231
C 1.19906328 1.12719165 0.23455878
C -0.00549063 -0.83547854 -0.65955834
N 0.74508444 0.32912704 -0.79741336
C -1.02383006 -1.04226431 0.17571418
N -1.58169574 -0.06672734 0.97760300
H 1.81419638 1.96057394 -0.14806379
H 1.17907868 0.47627899 -1.70006202
H 0.27710293 -1.63707684 -1.33523556
H -1.51262482 -2.00885799 0.21372556
