11

O -0.27982867 1.6440902 2.1646028
C -0.21692392 0.86858135 1.2339599
C 0.75279814 1.0207527 0.13660654
C 0.7809865 0.13462809 -0.87163925
N -0.10205933 -0.9234076 -0.87640065
C -0.99307466 -1.0446306 0.1527259
N -1.0866125 -0.24455795 1.147461
H 1.4343523 1.8618506 0.167476
H 1.4649768 0.18571176 -1.7108955
H -0.09737385 -1.5988111 -1.6232344
H -1.6572407 -1.9042073 0.07933771
