11

C 0.38508446 1.43972845 1.44319036
C 0.13148164 -0.24369190 -0.09230030
C -0.46435612 -0.77808230 -0.98118002
C -1.20711118 -1.41485941 -2.07036589
O 0.86046268 0.26649202 0.88642391
N 1.27714896 1.73652592 2.38060653
H -1.44393539 -2.45521159 -1.82186108
H 1.13376353 2.57035137 2.92510821
H 2.09480146 1.16197612 2.57336244
H -0.62212434 -1.40321776 -2.99502351
H -2.14521574 -0.88001099 -2.24796055
