11

N -0.9790284 -1.7067449 0.59581906
C -0.34638694 -0.54020935 0.15336116
C 0.9663561 -0.16236863 0.2668071
N 1.0411206 1.0528028 -0.3997673
C -0.19370289 1.3257458 -0.87351185
N -1.0586954 0.393098 -0.5559015
H -1.9822065 -1.6080327 0.5121164
H -0.72992086 -1.9705211 1.5392321
H 1.8301836 -0.62071764 0.71983933
H 1.8649126 1.6172712 -0.5149354
H -0.412632 2.219676 -1.4430591
