11

N -0.6180677 -0.665973 -0.6665893
C 1.4652679 0.45445815 0.87419426
C -0.3852615 0.6539875 -0.66162544
N 1.3748094 -0.8329129 0.48806402
C 0.30564964 -1.4189303 -0.16835196
N -1.448358 1.4165549 -0.43097177
H 2.2436223 -1.3596048 0.43006802
H 0.32009262 -2.4895763 -0.35126358
H -1.362201 2.41399 -0.51415205
H 0.45749497 0.7874609 1.159228
H -2.3530488 1.0405458 -0.15860017
