12

N 1.14588744 -0.94610865 -1.23272029
C -1.42950641 0.19788792 0.71225455
N 2.03412344 0.67270674 0.43165453
C -1.41073418 -1.02138061 0.24307783
C 1.25344427 0.07201633 -0.49784234
C -1.14233185 0.05459803 -0.73537362
N 0.18148307 0.39803916 -1.27967593
H -1.88237529 0.32016588 -1.49439283
H -1.52249775 -2.08047069 0.41571302
H -1.54685386 0.86185340 1.55561307
H 2.70986923 0.07931504 0.89409673
H 1.60949177 1.39137785 0.98759533
