12

N 0.12540536 0.020287469 -1.3863267
C -0.730396 0.16154726 1.0312984
N 0.65905905 0.14982712 0.79044384
C 1.0254989 -0.12030303 -0.46821007
C -1.7502599 -0.24415077 0.011246501
C -1.7579917 1.013867 0.3653307
N 2.3537147 -0.36735195 -0.7234089
H -2.2314415 1.9820125 0.3434037
H 2.8591087 -0.7015628 0.08024971
H 2.5607202 -0.82649046 -1.5938637
H -2.2180526 -1.0352275 -0.5483119
H -0.89536494 -0.03245467 2.0981483
