12

N -0.37438935 -1.2478689 1.0362693
C 0.14399537 1.2244134 0.6209755
C -0.79239875 1.2311785 -1.2831777
N -0.664764 -0.039050054 -1.1431631
C -0.025811752 -0.16027044 0.13369751
N -0.3120484 2.0608516 -0.24752152
C 0.9112152 -1.2925645 0.3705676
H 1.0527067 -1.9650681 -0.4724355
H 1.7745602 -1.153418 1.0158571
H -1.0439453 -1.8470528 0.5578491
H 0.5768793 1.5087167 1.572745
H -1.2459995 1.6801326 -2.161663
