9

O 2.2738428 0.59365815 0.28467742
C -1.006743 -0.62637454 0.4597722
N -1.669802 -0.30070734 -0.58831894
N 0.13457751 -0.023088396 0.8462956
C 0.9804112 0.5277895 -0.045871586
N 0.36030462 1.0044892 -1.0295064
H -2.4704165 -0.91593707 -0.7229601
H 2.7300801 1.1336594 -0.37602022
H -1.3322543 -1.393489 1.1719322
