9

O 0.7533389 0.2512851 -2.0773928
C 0.265544 0.11095767 -0.8371673
N 0.9903116 -0.31111193 0.17775215
N 0.07908569 -0.28233236 1.1819277
C -1.1048226 0.14446549 0.7203271
N -1.0281447 0.4065588 -0.5680435
H 1.6833141 -0.008381952 -2.053164
H 0.34423506 -0.56004125 2.112427
H -1.9828619 0.24860036 1.3433338
