9

O -0.59585094 1.7504339 0.9377229
C 0.6970591 -0.78595924 -0.6566442
N -0.6704333 -0.6316508 1.4958773
N 0.12880544 -0.122174084 -1.5728885
C -0.3147284 0.48177913 1.0466512
N 0.7495328 -0.29946512 0.68646735
H -1.471696 1.9275231 1.3109994
H 1.2312902 -1.7343519 -0.77302426
H 0.24602099 -0.5861352 -2.475161
