11

O 0.29502076 -1.2249858 -0.08734097
C -0.26020855 -0.47898218 -1.0726048
C 0.69223636 -0.36095962 0.971804
N -0.53151214 -0.95565295 -2.2034872
C -0.19399413 0.8602279 0.7545133
O -0.45463607 0.8030245 -0.64780694
H -0.97710663 -0.25247556 -2.7870452
H 1.756245 -0.121381134 0.8668561
H 0.296917 1.8091986 0.98108244
H 0.5175591 -0.8684614 1.9221239
H -1.1405208 0.7904478 1.3019052
