11

N -2.0003004 -0.5192296 -1.9136573
C -1.5746173 0.027220504 -0.9900614
C -0.9988883 0.697004 0.19529085
O -0.31408015 -0.20781432 1.0255061
C 0.8042837 -0.8221932 0.43624339
C 1.8536416 0.15711959 0.082726024
N 2.6528022 0.9401107 -0.20168611
H -1.8020067 1.1190223 0.8016223
H -0.3462499 1.5129768 -0.14401545
H 1.1955665 -1.5216932 1.1762036
H 0.5298486 -1.3825232 -0.46817186
