11

N -0.6283034 -0.71429795 -1.9388369
C -0.32311967 -0.27863345 -0.7999929
C 0.7075442 -0.8742442 0.13396777
O 0.43852374 -0.24370334 1.3701413
C -0.12975307 0.98974574 1.0491463
O -0.847007 0.8097136 -0.172951
H -1.3334177 -0.12892513 -2.3815742
H 0.58711976 -1.9533128 0.24144766
H 1.7210145 -0.649839 -0.22886382
H -0.8288123 1.2803293 1.8332014
H 0.6362106 1.763167 0.8943145
