11

N -0.51705056 0.6582903 1.337437
C -0.32578593 0.38585037 -0.058897804
C -0.5009799 -1.0357286 -0.6284776
O 0.7665851 -1.0870852 -1.1339412
C 1.1139567 0.20553844 -0.56320065
O -1.3360734 -1.8812346 -0.66638386
H -0.8888467 1.1133379 -0.65186167
H 1.4631746 0.8935106 -1.3337735
H 1.8580422 0.09347507 0.22859186
H -1.5034356 0.73505706 1.5577424
H -0.12958653 -0.08101138 1.9127649
