10

N 0.33515716 -1.3241878 -0.34060812
C 1.1075729 -0.09048615 -0.28323767
C -0.86158085 -1.0118682 0.008008857
C -1.0396115 0.4114632 0.32908714
C 0.15905125 0.9862017 0.15443076
H -1.6502134 -1.7590264 0.051284786
H -1.9668951 0.87389004 0.64291996
H 1.9473668 -0.22087608 0.41052982
H 1.5479488 0.10717847 -1.2684195
H 0.42120373 2.0277114 0.29600397
