10

N 0.62087655 -0.8889837 -0.7772499
C 1.0546767 0.38106441 -0.25468534
C -1.0961108 0.13093796 0.31997356
C -0.015851792 1.0095016 0.39923245
C -0.6591007 -1.006425 -0.3581985
H -2.0839105 0.28431943 0.7378732
H -1.2008293 -1.9250542 -0.5416286
H 1.985012 0.8019067 -0.6160374
H 0.009008154 1.9847248 0.86670315
H 1.3862293 -0.77199215 0.22401741
