10

N -0.54906702 -1.00887596 -0.81394855
C 0.79694917 -0.46866294 -0.67849556
C 0.72314617 0.60135060 0.37037424
C -0.54919961 0.65865308 0.78927068
C -1.27938181 -0.35921592 0.02022250
H 1.13352647 -0.08712770 -1.65046884
H 1.48652989 -1.27796345 -0.40816286
H 1.55944489 1.20124586 0.70836753
H -0.98070633 1.30924631 1.53941393
H -2.34124140 -0.56864975 0.12342693
