11

N 1.040537 -1.3086898 -1.2453532
C -0.75050616 1.1997998 0.28460896
C 0.39538124 -0.5558918 -0.3664963
C -0.45881087 0.22815683 1.4009503
C 0.24769355 -0.87604743 1.0365232
O -0.12875935 0.56464475 -0.85493773
H -0.2887275 2.1861887 0.40216863
H 1.1287712 -1.0504589 -2.2168207
H 1.4482504 -2.1649115 -0.90078145
H -1.8146453 1.3253257 0.05708133
H -0.8191842 0.4518838 2.4030569
