11

N 1.763547 0.98628867 -0.6831528
C -1.4299208 -0.116724916 0.19770774
C 0.6052076 0.5174307 -0.32413155
C 0.84673965 -0.7627092 0.31606042
C -0.40631136 -1.1473047 0.6361091
O -0.63121206 0.9430483 -0.42167568
H -1.9899279 0.34382787 1.0179302
H -0.73000497 -2.0556033 1.1352503
H 2.178722 -0.10195189 -0.15830758
H -2.1324556 -0.4744315 -0.5620117
H 1.9256166 1.8681297 -1.1537784
