11

N 2.4246638 -0.41170144 -1.5014484
C -0.4666958 -0.8264628 1.0768228
C -0.046802443 0.38009867 -0.92485696
C -0.23301883 0.5296991 0.6901514
C 1.3506352 -0.0733454 -1.2348771
O -0.9990136 -0.47178242 -1.2070838
H -0.6202399 -1.0900935 2.1238687
H -0.13959025 1.4044101 -1.3346889
H -0.46126324 -1.6044343 0.3249538
H -1.1953094 1.0638645 0.59078884
H 0.38663483 1.0997473 1.3963699
