11

N -1.28747333 -1.58017506 1.69370855
C 0.07314402 1.54010771 0.57509717
C -0.83853706 -1.19041543 0.70132149
C 0.14585715 0.75737816 -0.49099876
C -0.22298886 -0.70753103 -0.55619214
O 0.88020139 -1.50767062 -0.91691706
H 1.58453417 -1.34834459 -0.27505088
H -0.31284378 1.18972201 1.52987695
H 0.39407449 2.57497107 0.52789727
H -0.95575594 -0.86277115 -1.35422317
H 0.53978763 1.13472913 -1.43451931
