9

C -0.37806603 0.0948787 -0.24874513
C 1.4197433 -0.28241947 1.6265116
C -1.4224286 0.31224528 -1.2412369
C 0.5038172 -0.09295353 0.556555
O 2.650471 -0.6473084 1.3559296
H -2.1712618 1.0179651 -0.87194085
H -0.99563503 0.708875 -2.167161
H 2.3136594 -0.47845256 2.4634619
H -1.9202993 -0.63282996 -1.4733744
