10

O 0.3363307 -0.5090605 -2.237109
C 0.14787805 -0.32493353 -1.0689487
C -0.9081191 0.48380262 -0.26547787
C 0.009780042 0.26790804 0.9401998
O 0.07306435 -1.1283334 1.137155
C 0.9746069 -0.55498505 0.18875684
H -1.9089977 0.06039868 -0.17055835
H -0.9647933 1.512886 -0.6342253
H 0.20556852 0.92266303 1.7821769
H 2.0346816 -0.73034585 0.32803062
