12

C -0.79985976 0.4991869 -0.4030485
C 0.51632184 -1.2839149 0.074806154
O -1.6036512 -0.16159771 -1.0287569
N 1.5815376 -1.9049785 0.5973549
C -0.9372894 1.9857343 -0.19923875
N 0.36209092 -0.007464842 0.20705985
H -0.061235238 2.4944327 -0.61556846
H -1.8489252 2.3446655 -0.67972547
H -0.20165771 -1.9064288 -0.46031195
H 1.6872523 -2.9014108 0.52781343
H -0.95834553 2.2095444 0.8717943
H 2.2637615 -1.3677686 1.1078213
