10

C -1.160164 0.06315936 -0.5723493
C 0.34946796 0.18940766 -0.50890166
O 1.0032878 0.53927463 -1.4638956
C 0.98889285 -0.15415904 0.8206298
H -1.50251 0.17059776 -1.6044489
H -1.4871486 -0.89858353 -0.16435228
H -1.6168327 0.8489067 0.041489225
H 0.9164201 -1.2350898 0.9902395
H 2.0425067 0.13634905 0.815918
H 0.4660797 0.34013718 1.6456715
