10

N -0.77840084 -0.27283072 0.40439084
C -0.62072164 -0.34346503 -1.1177276
C 0.42540184 -0.45354387 -0.38494405
O -1.7460115 1.8209239 0.22352882
C -1.1146051 1.0188111 0.86394197
N 1.7176074 -0.62099713 -0.036678124
H 2.3453445 -0.94099605 -0.7598074
H 1.8461053 -1.0572002 0.8678968
H -0.81650543 1.1842397 1.9171555
H -1.2582152 -0.33494166 -1.9777566
