10

N 0.1791878 -0.7953256 1.6743934
C 0.34440216 0.12578732 -1.7221514
C -0.06759491 0.019448878 0.64126486
O -0.6534414 0.64746165 -2.1843338
C -0.8578169 1.1196274 0.49377257
N 0.7714958 0.061137356 -0.4222862
H 1.0543445 -1.2982358 1.6568813
H -1.5998935 1.0858018 -0.3096582
H -0.25687116 -0.61858743 2.5635762
H 1.0861876 -0.34711564 -2.3914587
