10

N -0.65593374 -1.218896 1.1909902
C -0.1808983 -0.30551374 0.2563029
C -0.7806742 0.7327305 -0.3774149
O 0.14314033 1.2684579 -1.249565
C 1.2322102 0.5163366 -1.0821811
N 1.1181904 -0.4278056 -0.21057619
H -1.3204846 -0.83826774 1.8504038
H 0.10170481 -1.6862891 1.6666888
H -1.7534374 1.1939827 -0.35995045
H 2.0961826 0.7652643 -1.6846977
