12

O 0.8371773 -0.3193776 1.6640455
C -1.3270365 -0.41247255 -0.35021085
C 0.8464628 0.5605855 -0.5657157
O -0.21662633 -0.12147741 -1.1970973
C 1.3944867 -0.27020004 0.5837604
O -1.6295149 0.601171 0.54827094
H -1.0308633 0.50587153 1.3059905
H 2.294317 -0.8846174 0.39029568
H 1.606108 0.7005919 -1.3404115
H 0.52485025 1.532328 -0.16576922
H -1.1333209 -1.3654928 0.1674443
H -2.1660397 -0.52691036 -1.0406027
