12

O -1.2606685 -0.6594215 1.2353244
C 0.12711276 -0.4852806 1.1863297
C 0.5849149 0.70320714 0.34278613
O 0.8550792 0.39818564 -1.0444163
C -0.14838125 0.026395423 -1.826552
O -1.2887414 -0.19056812 -1.4904419
H -1.5817543 -0.6344888 0.31809467
H 0.65884566 -1.3846385 0.83430225
H 0.4533268 -0.2953453 2.215462
H 1.5505493 1.0750849 0.69255465
H -0.16165116 1.501254 0.396594
H 0.21136785 -0.054384306 -2.8600376
