10

O 0.50280108 0.62897103 1.91404809
C -0.70135172 -0.47384345 -0.15921460
C 0.15678138 0.39603989 0.63876286
O 1.19597212 0.44585501 -0.28744637
C 0.42488838 -0.42117339 -1.17883214
O -1.02557888 0.92218186 0.11290767
H 0.21059832 0.07810591 -2.12592350
H -1.45185075 -1.22573807 0.04430653
H 0.94013476 -1.37371918 -1.32508951
H -0.25239465 1.02332038 2.36648092
