10

O -0.015280946 -1.3773255 -0.95606655
C -0.40476552 -0.38655037 -0.051621463
C 0.6838539 0.009777675 0.9447947
O 0.63239956 1.3876523 0.4729644
C -0.2588621 1.0713673 -0.505081
O -0.69144565 1.7689388 -1.3673451
H -0.65129596 -1.3946137 -1.6808263
H -1.3820732 -0.58274406 0.4107756
H 1.651431 -0.44548103 0.72727346
H 0.43603894 -0.051021416 2.0051322
