11

C -1.9872192 1.2579498 0.37900838
C -0.33328384 -0.7119499 -0.18116115
C 1.079553 -0.7294082 -0.55568993
C -1.0971562 0.31965125 -0.088787064
O 1.4613922 -0.36821526 -1.6534585
N 1.9237279 -1.2122955 0.42064682
H 1.5354619 -1.8026586 1.13715
H -2.607788 1.8139051 -0.3180882
H 2.867281 -1.4033612 0.118233494
H -0.82181484 1.2907468 -0.68551964
H -2.0201528 1.5456357 1.427666
