10

N 0.42130032 -0.84212655 -2.1362436
C 0.22586606 0.20575209 0.7713936
N 0.23145272 1.2994952 1.5337439
O 1.258916 -0.012992593 -1.8134007
C -0.6135179 -1.1080697 -1.2207888
C -0.5598601 -0.46225742 -0.03602804
H -0.39486322 -0.8733945 1.1864303
H -0.3141575 2.101093 1.2404225
H 1.0982168 1.5255415 2.002765
H -1.3533531 -1.833041 -1.5282941
