11

C -0.72879666 0.8165655 -0.15667218
N -0.28587425 -1.357802 -0.24065883
C -1.5797324 -1.1976802 -0.51960486
N 0.18841149 -0.119186565 0.04158062
C 1.5253252 0.027769307 0.5871643
N -1.8913252 0.20432569 -0.44427472
H -2.230456 -0.42372006 -1.3939198
H -0.5512175 1.875021 -0.028353266
H 1.811075 1.0798249 0.56121683
H 1.5351694 -0.34070554 1.6143239
H 2.2074215 -0.56441206 -0.020801993
