11

C 2.010344 -0.49929005 0.5327869
N 0.78339404 -0.8949188 0.89735883
C -1.555604 -0.42375952 0.39506048
N -0.14533012 -0.1853557 0.17678142
C 0.44275576 0.65706456 -0.64517945
N 1.7523448 0.4846067 -0.4485647
H -1.7658975 -1.4772675 0.20858768
H -2.1410122 0.20021027 -0.28178954
H -0.053467132 1.3351111 -1.3251386
H -1.8008194 -0.18501338 1.4311988
H 2.4732919 0.9886123 -0.94110173
