10

N -1.255507 0.025568921 -0.6968463
C 0.6699684 0.6455796 0.16035235
C -0.1629434 0.6682367 -1.0267321
N 1.5229847 -0.3438593 0.39759305
C -1.095499 -0.3018291 0.6508551
O -0.21419388 0.6221497 1.2154284
H 0.35343814 -1.100246 0.5422179
H 0.08724017 0.94807243 -2.0425875
H -1.9596857 -0.5843353 1.2407197
H 2.0541973 -0.57933754 -0.44100058
