10

N -0.6925529 0.2449938 1.0275518
C 0.5039389 -0.09687126 -0.84902024
C -0.39187557 0.79061145 -0.2190639
N 1.1692332 -0.25264782 -1.9274372
C -0.055318274 -0.88571614 1.1823971
O 0.6679093 -1.1678668 0.13245934
H -1.3046476 0.65053034 1.7169967
H 0.9960186 0.52205634 -2.5575545
H -0.09359401 -1.5340159 2.0420241
H -0.79911166 1.7289261 -0.54835314
