9

O 1.5335639 0.868603 -1.001829
C -0.4648531 -0.52456766 -0.39941597
N -0.48738882 0.87095076 1.8528612
N 0.32123652 1.0117801 1.0276777
N -1.3577812 -0.68844515 0.5109843
C 0.5608562 0.45211414 -0.15853481
H -2.0626717 -1.3807981 0.28377762
H -0.41668904 -1.0595766 -1.3483336
H 2.3737273 0.4499395 -0.7671873
