9

O 0.8407116 -1.7214886 -0.6237961
C 0.27505168 -0.5737257 -0.21449974
N -0.6604803 0.06659766 -0.8955785
N -0.90999556 1.1209121 -0.12468359
N -0.21662942 1.2114639 0.98918134
C 0.5609703 0.1334813 0.96737283
H 0.44388223 -1.9604707 -1.4715025
H -1.595494 1.812578 -0.3827818
H 1.2619836 -0.08934804 1.7562882
