10

O -1.9660385 0.9886155 -0.18724759
C -0.80715126 0.34966695 0.04070623
N -0.47780883 -0.30109414 1.1169739
C 0.80204695 -0.7655915 0.8569798
C 1.218049 -0.3822164 -0.37905926
N 0.15674733 0.3491625 -0.90936005
H -2.4939985 0.8624158 0.61474967
H 1.3393995 -1.3519465 1.5885903
H 2.1300879 -0.54411393 -0.9330172
H 0.0986662 0.7951016 -1.8093157
