10

O 0.20220909 -2.1761942 -0.68229973
C -0.007159847 -0.94671047 -0.3821309
N -0.82215494 0.06415535 -0.7490765
C 0.5607584 0.77502334 0.84242755
C -0.45853248 1.1749812 0.035361756
N 0.82890564 -0.5539371 0.56864566
H 1.1043772 1.3405626 1.585188
H -1.5398244 0.02179418 -1.4530891
H 1.0939832 -1.8237805 0.30123603
H -0.9625619 2.1241052 -0.06626259
