10

O 1.63193595 -1.31465216 1.19349813
C -1.09466099 0.49338704 0.02968815
N -0.45540899 -0.26490402 1.00699974
C 0.80905214 -0.65458642 0.59111923
C -0.25213388 0.59077325 -1.01438140
N 0.90537958 -0.10687994 -0.67828986
H -2.08707442 0.89189914 0.16519214
H -0.81520513 -0.50632942 1.91376594
H 1.72808424 -0.21938472 -1.24527604
H -0.36996871 1.09067712 -1.96231593
