10

O 1.027887 0.08602938 -0.5216816
C -1.2210804 0.6778777 -0.13709189
O 2.0920148 -1.5702702 0.6180313
C 2.0947986 -0.71474534 -0.20964774
C -0.14385077 -0.0955883 0.14685526
C -2.3753362 0.40279832 0.6573532
H -1.108702 1.4209162 -0.93575543
H -0.13746665 -0.8798949 0.88957936
H 2.9385 -0.43543816 -0.85100394
H -3.1667638 1.1083153 0.34336147
