10

O 0.038319968 -2.5486531 0.5194643
C -0.23810168 -1.9922059 -0.50797176
O -0.23655051 -0.66787124 -0.69769776
C 0.13417995 0.09483244 0.46334687
C 0.10284936 1.5113777 0.10768978
C 0.08974026 2.6842012 -0.14137295
H -0.53433186 -2.4898396 -1.4446393
H -0.5662359 -0.11867239 1.2770927
H 1.135084 -0.20295726 0.79035896
H 0.07504636 3.7297883 -0.3662707
