12

N -0.03989939 0.64601360 1.55433101
C -0.24444532 1.43899103 0.58255146
C -0.79914337 -1.21363190 -1.08091959
C 0.34848367 -0.43928313 -0.57075980
N 0.11816131 1.00037946 -0.69059648
C 0.52486685 -0.57298346 0.97565884
N -1.70691262 -1.79812851 -1.48928977
H -0.63570694 2.44577148 0.70195656
H 1.24640079 -0.74473261 -1.11484108
H -0.42430781 1.32668088 -1.47835219
H 1.58666651 -0.62999941 1.23431108
H 0.02583628 -1.45907724 1.37595008
