12

N -2.1133595 -0.7193348 -1.8387686
C 0.33739126 -0.96941346 0.7085973
C -1.085879 -0.5537722 -1.3394487
C 0.14902924 1.1904444 1.0151095
N 0.39412022 1.100207 -0.3547653
C 0.2227943 -0.31024644 -0.70305556
N 0.118418045 0.1055454 1.6762183
H 1.3404522 -1.3812792 0.8562648
H 0.044873267 2.1724699 1.4686815
H 1.0103452 -0.650709 -1.3808666
H -0.029570905 1.7897115 -0.9600535
H -0.38861445 -1.7736231 0.85208714
