11

C 0.4995371 -0.9527212 0.54947734
C 0.06529518 0.2233043 -0.25922325
C -1.2077106 0.98089445 -0.091791846
N 0.9590814 0.5024657 -1.1333108
N 2.0292194 -0.45307136 -0.9622543
N 1.7974471 -1.2571367 -0.043731116
H 0.6195441 -0.73311937 1.6157961
H -1.2612308 1.4218433 0.9090462
H -0.16069871 -1.8215268 0.45378467
H -1.2720698 1.7749436 -0.8357433
H -2.068414 0.31412405 -0.20204976
