11

C -1.345612 -0.24150273 -0.0061464086
C 0.68588924 1.2223632 0.34710598
C 0.5435416 -1.1886489 -0.4019706
N -1.5966069 -1.4632418 -0.3929227
N -0.3916365 -2.066269 -0.645101
N -0.0022813256 -0.010417739 0.011368401
H 0.103605665 1.76377 1.0950047
H 1.6073327 -1.3489491 -0.5024488
H 0.80997115 1.8480159 -0.5410225
H -2.0799992 0.50135 0.27243865
H 1.6657953 0.98353034 0.7636942
