11

C -1.1330371 1.14449 0.6033477
C -0.22168651 0.028423825 0.20724855
C 0.76195276 -0.013320797 -0.7454153
N 1.2460203 -1.2758949 -0.65498126
N 0.61205626 -1.976322 0.2857363
N -0.2749116 -1.1948758 0.8093891
H -2.1796288 0.8584201 0.46253982
H -0.9360747 2.039251 0.005964237
H -0.99928373 1.398135 1.6594023
H 1.1424809 0.71044534 -1.449519
H 1.9821122 -1.7187519 -1.1837124
