10

N -0.44241047 0.0016266167 -0.29096535
C -0.70870787 0.8338938 -1.2687807
O 1.6732528 0.7702312 0.22516154
N 0.7896346 -0.98862517 1.3728893
C 0.7637776 -0.0062591317 0.43414965
O -1.8674111 0.5616761 -1.7107337
H -1.6639674 -0.31068692 -0.7328036
H -0.04665674 -1.4966697 1.6087033
H 1.567593 -0.9899704 2.0118473
H -0.0651044 1.6247836 -1.6494678
