10

N 0.60399276 -0.807555 1.5060655
C 0.012807469 0.16973248 0.74333686
O -0.40464363 1.216949 1.1874785
N -0.10016409 -0.17607772 -0.606506
C -0.6396069 0.6725463 -1.5603608
O -0.76795715 0.34450406 -2.714832
H 0.82923514 -0.51495683 2.4443154
H 1.2533762 -1.4514961 1.0789675
H 0.13714167 -1.1028165 -0.93131477
H -0.92418146 1.6491704 -1.14715
