12

N 1.0865566 1.5431732 1.2179221
C 0.26060513 0.68378043 0.5750483
N -0.99068457 0.5032641 0.7813314
C 0.00018848224 -1.4384981 -0.28618124
C -0.31856334 -0.51260906 -1.3170258
C -1.2456628 -0.5968656 -0.13407189
N 0.8362105 -0.20414701 -0.4228094
H -0.32463232 -0.5500151 -2.3979266
H -2.245406 -1.0084287 -0.19821626
H 1.9691274 1.7371813 0.7697024
H 0.33288193 -2.468934 -0.27845794
H 0.6393791 2.3120987 1.6906848
