12

N -1.5275041 -1.0964622 -1.3426901
C -0.6200172 -0.45099628 -0.5507797
N -0.6910697 -0.6972065 0.7659796
C 0.22209907 -0.089992605 1.5146548
C 1.1966662 0.75442696 0.99647284
C 1.1563191 0.93568534 -0.3828711
N 0.26168254 0.3507489 -1.1701876
H -1.6489143 -0.74690455 -2.2793288
H -2.3234825 -1.504373 -0.88020784
H 0.1666258 -0.28453785 2.5858707
H 1.932909 1.2418 1.6223733
H 1.8746859 1.5878121 -0.8792859
