12

N 0.23561588 -1.2886188 -0.8843142
C 1.0755919 -1.1860752 0.0796367
N -1.8620853 -0.14490698 -0.44955295
C -0.46511227 -0.05620086 -0.42629868
C 0.58110017 0.082379244 0.74323165
C 0.92630404 1.3126383 -0.07405904
N 0.093793005 1.1883653 -1.0408031
H -2.212487 -0.98108685 0.00044296635
H 0.38234052 0.13329233 1.8158077
H 1.9089073 -1.8521104 0.28737
H -2.3233547 0.6851354 -0.0978883
H 1.6593865 2.1071887 0.046427067
