12

N -1.5238919 -1.1007286 -1.3437353
C -0.62055254 -0.4535523 -0.55225825
N -0.6911518 -0.69277936 0.7638297
C 0.2195041 -0.08641278 1.5163491
C 1.1936902 0.7568358 0.99703926
C 1.1561205 0.93417794 -0.38413283
N 0.26559287 0.34721896 -1.1701053
H -1.6450944 -0.749097 -2.2794585
H -2.320467 -1.5072205 -0.8802079
H 0.16201016 -0.28033766 2.5864017
H 1.9295576 1.2459741 1.6242673
H 1.8746823 1.5859215 -0.8779888
