12

C -1.3542348 0.37904257 -1.3377718
N 0.57382935 -1.0851847 0.047212064
C 0.80048674 0.7241872 1.6260759
N -0.72222364 0.922868 -0.15046073
C 0.16112572 0.18117857 0.40183592
O 1.7497479 -0.028214993 2.1296582
H -0.6319192 0.22915922 -2.1580517
H 1.3837613 -1.4288132 0.54826707
H 1.4703656 0.97971606 2.651337
H -1.8335906 -0.5920251 -1.1450496
H 0.51956266 -1.3581041 -0.9229933
H -2.1169107 1.0761905 -1.6900591
