11

C 0.53897478 -1.67441362 -0.72696970
N 1.45510294 -2.38374899 -0.57084112
C -0.51491221 -0.77212308 -0.97503017
C 0.03220898 0.77585287 1.00103293
N -0.13458062 0.59551047 -0.47081120
H 0.32816227 1.80195425 1.23972953
H 0.73405280 0.85362349 -0.93968535
H 0.79348912 0.06756128 1.33419512
H -0.83563217 1.24927402 -0.81760841
H -1.47698828 -1.04576231 -0.55087070
H -0.91987728 0.53227205 1.47685917
