11

C 0.8617988 -0.47638378 -0.7346888
N 2.8445234 -0.7201129 0.90542436
C -1.3701975 0.23682182 0.37500083
C 1.9429451 -0.65817446 0.17259635
N -0.12114979 0.6464745 -0.25813413
H -1.986681 1.1150644 0.58792377
H 0.2629765 -1.3609747 -0.9242937
H 0.21762 0.6052366 -1.3521032
H 0.40759364 1.3484591 0.24688064
H -1.9050772 -0.42101768 -0.3148752
H -1.154352 -0.31539285 1.296269
