11

C 0.18716551 0.9683418 0.79519504
N 1.0043429 -2.667589 0.026607018
C -0.6611714 -0.8744642 -0.7811257
C 0.22343284 -1.864771 -0.30878282
N -0.037684552 0.48465014 -0.59841615
H -0.78323525 1.0114602 1.2938669
H 0.6626235 1.9539309 0.79670745
H 0.8193299 0.23448543 1.2992233
H -1.647684 -0.8703132 -0.3259821
H -0.6203632 1.152647 -1.1018187
H 0.85324365 0.4716216 -1.095474
