9

C 0.27138097 0.09460668 -2.21895581
C -0.00655642 -0.02201956 -0.93952522
C -0.27293219 -0.13138401 0.29709847
C -0.55614341 -0.24453152 1.57897341
O 0.22791126 0.15103988 2.60998129
H 1.18953112 0.57196176 -2.54493590
H -0.40827277 -0.27918546 -2.97853000
H 1.03564296 0.54586290 2.26232273
H -1.48056167 -0.68635068 1.93357098
