9

C 0.775614 0.1177204 -1.6534598
C 0.15153106 0.023735696 -0.33370805
C -0.34981823 -0.04242065 0.760406
C -0.97310936 -0.14866781 2.066029
O -0.6576079 0.51763844 3.0246255
H 0.8190165 1.1594535 -1.9844339
H 0.21764317 -0.45910507 -2.3968236
H 1.7984807 -0.26768374 -1.6165208
H -1.7817501 -0.90067077 2.1338856
