10

C -1.1282674 -0.26242697 -0.4197713
C 0.053541176 0.28609407 0.23149091
C 1.2823988 -0.41269058 -0.08390802
C 2.3213284 -0.9677114 -0.32226825
N -3.2734268 0.7931786 0.016204992
N -2.2786627 0.29765758 -0.18975747
N -0.014082244 1.2983911 1.0097183
H 3.2510295 -1.4545939 -0.5271038
H -1.1252017 -1.1115189 -1.085986
H 0.91134316 1.5336205 1.3713807
