12

N -1.3427325 0.28669667 -0.07961433
C 0.5309303 0.100857936 -1.6699052
C 0.8021991 -0.4747719 0.73094153
O 0.36531994 -0.1403786 2.0181437
C 0.09358661 0.4227287 -0.29393178
N 0.8348429 -0.18161905 -2.7475038
H 0.5929954 -1.5290462 0.48308092
H -1.8651851 1.0072322 -0.56518376
H 0.36426055 1.4623706 -0.08084056
H 1.8835769 -0.32779256 0.6903062
H -0.5939541 -0.016724028 1.9474063
H -1.6658397 -0.6095539 -0.43289927
