12

N 2.4114597 0.32985988 -1.7445197
C 1.5536922 0.053618077 -1.0215502
C 0.46445465 -0.28688726 -0.08113356
O -1.993992 -0.11123017 0.41429228
C -0.8465184 -0.13423882 -0.78196335
N 0.43357217 0.61482334 1.0886388
H -1.9527667 -0.9899259 0.067614116
H 0.3643127 1.5792065 0.7569605
H -0.9557631 -0.510934 -1.7702013
H 1.2850829 0.53784776 1.6353551
H -1.4214385 0.21866639 1.1294585
H 0.65790427 -1.3008058 0.307049
