12

N 0.05812345 -2.50986393 -1.40567778
C 0.05344144 -1.41604153 -1.03567036
C 0.00088803 -0.02966683 -0.52246816
O 0.90442084 1.48192298 1.10090689
C 0.98098827 0.16089301 0.64419149
N -1.31940514 0.38341055 -0.06025359
H 0.29712777 0.64805091 -1.33022321
H -1.70735064 -0.31888680 0.56324486
H -0.04023173 1.70057742 1.11887011
H 0.73471376 -0.56636618 1.43611213
H 2.00696152 -0.02797994 0.32117755
H -1.96967763 0.49395008 -0.83020978
