12

N 2.1679158 0.3913145 -0.6963638
C 0.8863403 0.16633947 -0.28196135
N 0.70523965 -0.8430795 0.5864119
C -0.5411328 -1.0228089 1.005489
C -1.6084498 -0.23932633 0.58731586
C -1.294183 0.7653864 -0.3216254
N -0.06296199 0.9843418 -0.7689566
H 2.294107 0.9653603 -1.5134044
H 2.8330333 -0.3470703 -0.5313437
H -0.6932316 -1.8411385 1.7095433
H -2.6189094 -0.40262976 0.9390984
H -2.0677671 1.4233108 -0.71420294
