11

O -0.021946738 -1.8435701 -1.4417888
C -0.3809251 1.0265046 0.49211007
N -0.5152531 0.37437487 -0.83645093
C -0.09605647 -0.79581034 -0.6282989
O 0.16644585 2.299842 0.43547654
C 0.3343393 0.065718375 1.4569846
N 0.3972233 -1.0145289 0.6975985
H -0.38744068 -1.5779885 -2.2973533
H -1.401313 1.1485518 0.8871975
H 1.1118271 2.217535 0.2524921
H 0.79309946 -1.9006286 0.98203254
