11

O 1.4376552 -1.9089067 -0.33346137
C -0.29528767 0.8709054 0.4262539
N -0.6290827 0.78677255 -0.8986956
C -0.07810171 -0.34252173 -1.4983314
O -0.73353827 1.9112592 1.1319164
C 0.5079646 -0.9208606 -0.3107131
N 0.40987307 -0.121430255 0.85162914
H 1.6191547 -2.1447608 0.58649415
H -1.2399409 1.4373686 -1.3669457
H -0.6028666 -1.3769809 -0.6212372
H -0.3958298 1.8091553 2.033091
