11

N 0.45976110 2.72708735 0.15163446
C -0.17865170 -1.81205131 -0.34192235
C 0.22443644 1.50274849 0.13837323
C -0.42086693 0.48167370 0.96932138
C -0.07903122 -0.38164030 0.00360339
O 0.55804369 0.52198700 -0.85531132
H 0.82264633 -2.23987161 -0.46089640
H 0.96066676 3.02495588 -0.68555796
H -0.92224441 0.45617736 1.92332593
H -0.71483171 -1.93302792 -1.28870193
H -0.70992850 -2.34803851 0.44613167
