11

N 1.9167167 0.62268186 -1.2053738
C 0.8880789 0.26524463 -0.5655701
C 0.0544125 1.1205709 0.30292127
C -0.933431 0.38290253 0.79737306
C -0.8070193 -1.0193349 0.27685687
O 0.35022444 -0.99330443 -0.55943054
H 2.3088932 -0.15586247 -1.7305106
H 0.2711977 2.1684268 0.46397465
H -1.7246562 0.6942525 1.4668638
H -1.6707497 -1.3299003 -0.3211511
H -0.6536674 -1.755677 1.0740466
