11

N -0.44362712 2.0438573 1.8158252
C 0.004517407 -0.3600239 1.1041218
C 0.27227956 -1.1745118 -1.406678
C 0.06309891 -0.3058566 -0.23319195
C -0.23941095 1.0844892 1.0461059
O -0.16348648 1.0671198 -0.38725716
H -0.5991632 -1.128629 -2.0677364
H 1.1468948 -0.8362175 -1.9727062
H 0.10210062 -1.1032149 1.8789113
H 0.4271999 -2.2048712 -1.0827557
H -0.5704034 2.9178586 1.3053619
