11

N -1.4244131 -1.994084 -0.701042
C 0.55513227 -0.83407736 -0.27091932
C 0.9237331 0.32829985 0.11977422
C -1.0659195 -0.8267652 -0.29117915
C 0.7056101 1.597607 0.5560693
O -1.6192896 0.22408596 0.067256965
H 0.64255714 1.8046285 1.623113
H -2.4480205 -2.0123057 -0.7188287
H 1.9735277 1.0188494 0.33897448
H 0.660206 2.4158032 -0.16056232
H 1.0968767 -1.7220414 -0.5626565
