11

C -0.60707974 0.8133415 -0.9029103
N 0.5006162 -1.794091 0.78255194
C 1.2830884 -0.9092187 0.17192422
N 0.81122917 0.35242045 0.24560829
C -0.40462723 0.13692848 0.8998044
N -0.57740533 -1.140862 1.2390941
H -0.5970568 1.8924581 -0.7805024
H -1.6162318 0.4061538 -0.9426994
H -0.9702758 0.9326413 1.3758308
H -0.025954429 0.4850969 -1.7587951
H 2.2036974 -1.1748688 -0.32990664
