12

O -0.85721606 1.3314366 1.6829044
C 0.44352037 0.3791089 -0.10748848
C -0.23088694 -1.6770669 -1.0073583
C 0.2597853 1.5159312 0.86762875
N -0.38024044 -0.57833064 -0.07883731
H -0.13751775 -2.6095254 -0.4414406
H 0.17131883 2.4521663 0.29461303
H -1.2307862 0.4774111 1.4103785
H 0.6361744 -1.5738136 -1.6768273
H 1.1766415 1.6033376 1.4718049
H 1.2907356 0.43340343 -0.80507475
H -1.1415287 -1.7540592 -1.6103024
