9

O 1.7331101 0.33712023 0.3484307
C -0.5271895 1.1049412 -0.20629321
N -1.6936207 0.45096207 -0.45445096
N -0.21852353 -1.0142956 -0.025672177
N -1.5206512 -0.82081324 -0.34508768
C 0.4312617 0.16487482 0.072433926
H 2.1127594 -0.44486552 0.76570266
H 0.122774154 -1.9576592 0.08051393
H -0.43992025 2.1797352 -0.2355772
