9

O -1.9685391 0.42372406 0.07915435
C -0.6558779 0.13430926 0.032376252
N -0.10865992 -0.8957381 0.65437424
N 1.1748258 -0.7818247 0.3263523
N 1.4969147 0.2267456 -0.44836828
C 0.33954683 0.8434766 -0.6608965
H -2.3998485 -0.23944269 0.63388634
H 1.861672 -1.4389777 0.6558407
H 0.25996614 1.7277278 -1.2727193
