11

C -0.46683922 0.85187363 -0.66882707
N 0.38873677 -0.57526435 0.88306804
C -0.88916085 -0.29578160 0.25520677
O 0.92046935 0.61396261 -0.92118037
C 1.42092007 -0.20737453 0.04263111
O 2.57719442 -0.52317654 0.11591469
H -0.57092316 1.82338760 -0.17521723
H -1.64491370 0.01790367 0.97949066
H -0.99817711 0.86341502 -1.62118553
H -1.27176287 -1.15358197 -0.31142740
H 0.53445669 -1.41536352 1.42152638
