11

C -1.4717959 0.7931745 -0.44867215
N -0.478751 -0.08717515 0.12944569
C 0.8402673 0.02571306 -0.12453201
O 1.3841066 0.8441365 -0.84367645
C 1.6770144 -1.0244673 0.60809493
O 1.1942003 -1.8578 1.329374
H -0.9497881 1.5184965 -1.0752132
H -2.1788845 0.2308054 -1.0674561
H -2.022799 1.3248699 0.33287257
H -0.7533037 -0.8323568 0.75362283
H 2.759734 -0.9353966 0.40613994
