10

C 0.1383754 0.69243395 0.62622005
C -0.013012773 0.7131978 -0.85556394
N -0.5943398 -1.410686 0.23052236
C -0.6065067 -0.5082867 1.1274552
C 0.16342092 -0.7579135 -0.83833224
N 1.1991142 0.15043399 -0.2807246
H -0.027104106 1.5014517 -1.5963998
H -1.0839366 -0.6161295 2.0956428
H 0.3889281 1.5721331 1.2056866
H 0.43506125 -1.3366348 -1.7145063
