11

N 0.19678973 1.1294267 -1.7148296
C 0.026705895 0.33022207 -0.57656676
C 1.0107214 0.14033958 0.4457186
N -0.6811349 -1.2672876 0.9504201
C -1.00327 -0.6494319 -0.1540227
N 0.5341355 -0.7902591 1.2954345
H -1.9529883 -0.84668136 -0.63760626
H 1.9556415 0.6464841 0.571239
H 0.9341306 -1.073438 2.1742015
H -0.35353848 1.2988307 -0.10658212
H -0.6671929 1.0817949 -2.2474062
