11

N 1.0911975 1.1594352 -1.0039699
C 0.31515083 0.24500805 -0.27092162
C 0.31429496 -1.1673268 -0.38470945
N -0.47916484 -1.733558 0.5120705
C -0.54774904 0.50066185 0.7736554
N -0.98708344 -0.7156107 1.2026795
H 0.8679167 -1.7818425 -1.083226
H -0.8669511 1.4226263 1.2370591
H 1.2017784 0.881193 -1.9703456
H -1.6234919 -0.9071509 1.9572455
H 0.71410185 2.0965648 -0.9695374
