9

O 0.61587298 -0.22105766 -0.48125536
C 0.03801964 -0.04927076 -1.67763677
C 0.51944498 -0.14280591 1.84630166
O -1.08381610 0.33404860 -1.85853115
C -0.24216116 0.10006896 0.61921271
N 1.08286724 -0.32220582 2.83889176
H 0.75931228 -0.31757712 -2.46219777
H -1.13741028 -0.52999510 0.60267385
H -0.55212946 1.14879478 0.57254092
