9

O -0.53553295 -0.9466921 -0.8218802
C 0.37635034 0.5812082 0.53015924
C -0.54827636 0.28512427 -1.3032769
O 0.5655136 0.98683524 1.7258499
C 0.15596424 -0.82637966 0.43942696
N -0.0060981503 1.2523232 -0.6128947
H -1.0516951 0.41217354 -2.2577276
H 0.05975423 -0.2170974 1.7960812
H 0.98402035 -1.5274951 0.504262
