9

O 1.0031031 -0.9447146 -1.5027592
C 0.3090104 -0.3494606 -0.5210903
C -0.93935114 -0.6240808 -0.07892407
O -1.1957335 0.26633283 0.9423687
C -0.09027802 1.0052891 1.0379143
N 0.84575105 0.6950148 0.19924018
H 1.862763 -0.50200516 -1.5432452
H -1.717602 -1.3261113 -0.32561255
H -0.077662766 1.7797357 1.792108
