9

O -1.295162 0.40031272 -1.0243353
C 0.27435836 -1.5667956 -0.0060776398
N 0.80590075 -0.47323757 0.6949139
C 0.46450523 0.73129153 0.5397324
C -0.62133104 1.1813549 -0.40068164
O 0.8045896 -2.0663466 -0.9608211
H -0.6177436 -1.9854022 0.49641845
H 0.9623107 1.5047542 1.1300755
H -0.77742773 2.2740693 -0.46922478
