9

O 0.00595947 -0.13936632 -2.41264828
C 0.65741832 -0.33113913 0.70711483
N 0.46700612 -1.01202341 -0.33771164
C -0.37936143 -0.65520734 -1.39890902
C -0.04671158 0.96590523 1.00351499
O -0.90531440 1.40967225 0.28317413
H 1.35654971 -0.70042187 1.46170433
H -1.41337769 -1.01525332 -1.24156553
H 0.25783153 1.47783381 1.93532598
