11

O -1.38620607 1.26418451 -0.80111117
C 0.88156245 -1.38102508 0.57979274
C -0.44371585 -1.02631163 -0.09491167
C -0.46430443 0.46721998 -0.27198537
C 1.47193259 -0.18329749 0.71845341
N 0.64331806 0.93448044 0.19835875
H -1.30757678 -1.34192014 0.50584601
H -0.54933990 -1.51290428 -1.07357911
H -2.14030319 0.73277495 -1.09036255
H 0.87271989 1.92234744 0.19332884
H 2.42191317 0.12445158 1.13617036
