11

O 0.1889045 -1.9086124 1.1295848
C 0.028078029 -0.76577073 0.41392884
C -0.87540597 -0.36834708 -0.5371043
C -0.5024548 0.9654755 -0.9085016
C 0.59602106 1.3148438 -0.17683628
N 0.91585857 0.24174102 0.63516515
H -0.50626296 -2.521362 0.865003
H -1.6998843 -0.9505824 -0.9236732
H -1.0036126 1.5824679 -1.6392027
H 1.1819487 2.2199626 -0.15115707
H 1.6768097 0.19018407 1.2927936
