13

C 0.13218623 -1.6026208 -0.488434
N 0.07667574 0.46063137 0.49418086
C 0.01977051 -0.22458313 -0.8883058
O 1.275327 -1.9370816 0.2890255
C -0.75209904 1.6600522 0.60320115
O -0.382776 0.37214854 -1.8469023
H -0.5677166 2.1467924 1.5638974
H 1.0271006 0.5744642 0.83356184
H -0.13364395 -2.3455818 -1.2421299
H -1.8029113 1.3627065 0.5460674
H 2.0045948 -2.1073627 -0.31538737
H -0.5427874 2.3483534 -0.21854673
H -0.3537206 -0.70791847 0.6697718
