13

C 0.05558451 -1.93746777 0.76455189
N 0.15050399 -0.76103159 -0.06396436
C 0.16448513 1.61057876 -0.15450377
O -0.56346306 1.39395063 -1.50818966
C 0.46332504 0.47183974 0.56126009
O 1.02479293 0.51528377 1.67323586
H -0.50344248 -0.72009650 -0.82838899
H 0.07330726 1.69392664 -2.17406833
H 0.87032026 -1.89895701 1.48906290
H 0.16932911 -2.83237457 0.14566508
H -1.40440405 1.87289996 -1.42544401
H 0.39023043 2.60082326 0.19953442
H -0.89056917 -2.00937498 1.32124910
