10

N -0.31936058 -1.0038989 -1.5094895
C -0.07739982 -0.4414856 -0.26762444
N -0.037219293 -1.1721256 0.8171367
O 0.31210208 -0.3042491 1.8411684
C 0.45280913 0.92264426 1.3354282
C 0.22467841 0.9299699 0.0027111117
H -0.88281846 -0.42873994 -2.118803
H -0.6723902 -1.9491074 -1.4504435
H 0.72386426 1.6936991 2.0424826
H 0.27573442 1.7532932 -0.69256675
