11

O -0.0032950707 1.3010403 -1.8314403
C -0.6901006 -0.6328201 0.6551832
C -0.09055958 0.75687784 -0.6817576
N -1.2368232 0.16886348 -0.47975558
C 0.6110622 0.25149286 0.572874
O 1.866832 -0.3245 0.4742237
H -1.2153152 0.6426045 -1.7531344
H -0.49644613 -1.6800319 0.3955192
H -1.2853738 -0.56412023 1.5689365
H 0.65524966 1.0015745 1.3652768
H 1.8847694 -0.92098135 -0.2859254
