11

O 1.1422491 -1.7609015 0.5634158
C 0.6882212 -0.56728977 0.17474858
C 0.03816001 1.150882 -0.4933546
N 1.2496562 0.28872555 -0.59328663
C -0.592313 0.14933902 0.51533955
O -1.8375919 -0.44319496 0.288848
H -0.6189534 0.5324626 1.5398239
H 2.0123744 -1.8855857 0.15299368
H -0.5024736 1.2205653 -1.4427651
H -1.8337716 -0.83872026 -0.59269625
H 0.25444233 2.1537173 -0.11306703
