9

N 0.73424035 -1.934573 -0.4410952
C 0.72488046 -0.74440765 -0.0044691744
N -0.4242006 0.024552546 -0.15272532
C -0.54200566 1.295688 0.275114
O -1.6843154 1.8940547 0.07108957
H -1.2239039 -0.409646 -0.6120903
H -0.747569 2.4455423 0.62219507
H 1.6329396 -2.3680608 -0.25736728
H 1.5299342 -0.20314997 0.49934876
