14

C -2.393328 -0.07582307 0.97339475
N -1.3502699 0.13205059 -0.012405359
C -0.032639906 0.035957433 0.34606257
O 0.3534182 -0.077001855 1.4956356
N 0.84339404 0.10788421 -0.7338963
C 2.2153518 0.0029553524 -0.5925842
N 2.9633474 0.1087304 -1.6159397
H -2.0373263 0.29443324 1.9342265
H -2.656021 -1.1355548 1.083353
H -3.2843053 0.48447627 0.67795044
H -1.5983505 -0.021739447 -0.97738165
H 0.52173406 0.3073583 -1.6713983
H 2.5179408 -0.17064938 0.440657
H 3.937055 0.0069227084 -1.3476746
