14

C 0.98195624 2.2632565 0.7391572
N -0.7574563 -3.0257201 -1.2533636
C -0.19509612 0.20317411 0.17155105
O 0.9708182 0.48045257 -0.23849246
N -0.7730031 -1.0018672 -0.1751617
C -0.15112554 -1.9500288 -0.9647125
N -0.75663537 1.106113 0.91303176
H -0.1672452 -3.613941 -1.8359764
H -1.7076554 -1.2178863 0.13779697
H 0.26416442 3.0707064 0.8225565
H 1.7120222 2.4242857 -0.04542771
H 0.85247177 -1.6521441 -1.2734736
H -1.6750189 0.9812728 1.3226029
H 1.401803 1.9323267 1.6799116
