14

C -1.67607945 -0.08292128 1.62618177
N -1.69862562 -0.01742135 -0.99403299
C -0.55962303 0.00059515 -0.42795738
O -0.44260911 -0.02907443 0.90849978
N 0.67996802 0.05183625 -1.04690388
C 1.91717781 0.05677884 -0.42842768
N 2.96735416 0.09782961 -1.13679857
H -1.39018838 -0.11235567 2.67784848
H -2.24507932 -0.97638753 1.35344484
H -2.28693637 0.79981438 1.41243177
H -1.61770188 0.01584394 -2.00474522
H 0.70527061 0.07730041 -2.05504110
H 1.85564924 0.02440405 0.66197662
H 3.79142372 0.09375758 -0.54647669
