11

N 1.445796 0.21368808 1.060251
C 0.051093675 -0.99882305 -0.23704137
C -0.44616646 0.30724105 -0.1376525
N -1.5463537 0.86861515 -0.76091826
N 0.3319952 1.0550096 0.6606895
C 1.2421376 -0.9749658 0.47117648
H 1.9668999 -1.7665763 0.6049252
H -2.2865121 0.21465006 -0.9674174
H -1.8835773 1.6979485 -0.29454383
H -0.3952407 -1.833405 -0.76032054
H 1.5199276 1.2166175 0.36085185
