11

N -0.87555915 0.9910392 -1.3418528
C -0.2796649 0.24052776 -0.31124064
C 1.0155306 0.30310586 0.1558207
N 1.0763487 -0.55703306 1.2105975
N -0.07767945 -1.1736921 1.4534991
C -0.9109022 -0.6979586 0.54037285
H -1.5577916 0.4519251 -1.859479
H -0.19181399 1.3583852 -1.9902028
H 1.8696938 0.8788593 -0.1667274
H 1.8710926 -0.7610506 1.7922801
H -1.9392544 -1.0341082 0.5169322
