11

N -1.5529273 -0.6651562 -0.79451776
C 1.5597793 0.6065585 0.4713231
C -0.38550624 -0.19347583 -0.18158372
N 1.0839448 -0.025320953 1.5262307
N -0.10425017 -0.509038 1.107411
C 0.6820374 0.54850537 -0.6356355
H -2.3965876 -0.3254917 -0.3484718
H -1.5745087 -0.4151289 -1.7755859
H -0.63961834 -1.1065643 1.7149369
H 2.5221498 1.0985631 0.53141254
H 0.80548704 0.9865487 -1.6155195
