10

N -1.2287278 -0.70781106 -0.2944138
C -0.6277964 -0.006647637 0.6951978
O -1.1206367 0.20272012 1.783274
C 0.76701754 0.55711913 0.38134474
C 1.3072637 0.19198938 -0.92606443
N 1.6838503 -0.12516037 -1.9692698
H -2.1416302 -1.0952759 -0.115077496
H -0.79040587 -0.88124055 -1.1859072
H 0.7067766 1.6467537 0.46212974
H 1.444289 0.21755327 1.1687864
