10

N -0.09733208 -0.17807358 -0.63003178
C -1.07825465 0.47137178 -0.26781226
O 0.85646784 -0.24126215 1.52198348
C 0.93420285 -0.47251469 0.33957328
C -2.14837404 1.15557740 0.02439062
N 1.98291602 -1.05431932 -0.28522642
H -3.03343579 0.64793966 0.38776150
H 1.94583616 -1.22522686 -1.27630261
H -2.14290422 2.23506916 -0.07248976
H 2.78087807 -1.33856132 0.25815390
