10

N 0.835888 -2.072783 0.3602236
C -1.0259377 2.12512 -0.61869377
O 1.19966 -0.024359146 1.2916659
C -0.6932068 0.87523246 -0.45823616
C 0.6169398 -0.74802935 0.520723
N -0.4412346 -0.326398 -0.3700002
H -1.7756531 2.572641 0.022181056
H -0.53332424 2.7224905 -1.3771123
H 1.5345403 -2.5260158 0.9252582
H 0.28232828 -2.5978985 -0.29600933
