17

C -1.77752251 -0.61775865 0.02973796
N -0.46988586 -0.42787060 0.63014322
C -0.04113415 -1.46464388 1.53757761
O -0.03565642 1.12178192 -0.94461972
N 1.78193715 0.24225193 0.08918357
C 0.51146791 0.27916682 -0.05022901
C 0.87663498 1.96785794 -1.63262633
H -0.88011782 -1.73170040 2.18453635
H -2.50736826 -0.81286648 0.82098311
H -2.07423357 0.28593780 -0.50388026
H -1.78804546 -1.46069919 -0.67775959
H 2.07027467 -0.46383710 0.75738575
H 0.76678903 -1.09672555 2.17651312
H 1.41369989 2.61298372 -0.93104136
H 0.25413461 2.56000927 -2.30195940
H 1.60290047 1.38036678 -2.20027357
H 0.29612510 -2.37425417 1.01632863
