17

C -2.48325 -0.92770827 0.5983169
N -1.3233553 -0.4291177 -0.11707659
C -0.26536107 0.06937759 0.6245444
O -0.35014057 0.21553174 1.836961
N 0.85415375 0.4232042 -0.09381164
C 2.0664227 0.76097935 0.62367934
C 0.93654025 0.34988275 -1.5391232
H -2.2687237 -1.8334417 1.1807718
H -2.8346474 -0.16138653 1.294214
H -3.2782743 -1.1421124 -0.11951232
H -1.0888183 -0.9270892 -0.962542
H 2.852182 0.009120572 0.4614963
H 1.8330929 0.80332303 1.6868887
H 2.451373 1.7364702 0.30016947
H -0.016265895 0.6444078 -1.9889996
H 1.6975099 1.057634 -1.8839041
H 1.2175618 -0.64907527 -1.9020724
