17

C 1.4564152 1.8960067 -1.2611248
N 1.7724631 -0.19919728 0.24624094
C 0.56347334 0.15440665 0.026698977
O 0.3127357 1.209151 -0.76949507
N -0.6151576 -0.38121656 0.52649933
C -1.8645021 -0.17869419 -0.18383901
C -0.52405524 -1.5966716 1.2988551
H 1.0536501 2.6986806 -1.8772835
H 2.0508804 2.3013031 -0.43699288
H -1.895279 0.829826 -0.5978353
H 0.27703017 -1.5144714 2.0390224
H -0.34870696 -2.486352 0.67390954
H -2.6956437 -0.2947223 0.5179814
H -1.9924432 -0.89826065 -1.0066801
H -1.4625471 -1.7378645 1.8402108
H 2.0858 1.23057 -1.857698
H 1.8258862 -1.0324936 0.8215301
