10

O -0.7171447 1.1788789 0.35859695
C -1.0672637 -0.15607552 -0.07338724
C 0.15573001 -0.9266248 -0.6022908
O 1.3707337 -0.37854123 -0.28023785
C 0.47113243 1.2400371 0.85988104
O -2.2060115 -0.4783282 -0.030403905
H 0.84768796 2.269664 0.8711312
H 0.002401655 -0.97351795 -1.6922829
H 0.010727357 -1.9489039 -0.21319714
H 1.132007 0.17341168 0.80219054
