10

O -0.36328584 -1.12937184 -0.17150752
C 0.86405543 -0.85693443 0.45299660
C -1.01847461 0.10685617 -0.33577713
O 0.06959366 2.30149116 -0.55381160
C 0.09814752 1.13669506 -0.29058754
O 1.20860182 0.48653503 0.13443346
H -1.53550556 0.12730094 -1.29966576
H 0.79584285 -0.94830249 1.54501212
H 1.62530016 -1.53134001 0.05459202
H -1.74427545 0.30707044 0.46431539
