10

O -0.5648029 -1.880369 -0.7881301
C 0.21222243 -0.9910248 -0.04867208
C -0.3161442 0.42086402 -0.14629246
O -1.2918702 0.69234633 -0.81149423
C 0.4026472 1.5250376 0.612073
O 1.3759576 1.3150141 1.2861874
H -1.2625568 -1.3550436 -1.206947
H 0.23892322 -1.2693995 1.0162456
H 1.257791 -0.98481274 -0.39308193
H -0.052167363 2.5273876 0.48011184
