11

N 1.4086747 -1.2147456 2.4117556
C 0.09596448 -0.095073916 -0.573519
C 0.53807485 1.2922592 -0.81141853
C 0.557391 -0.88852054 1.7013986
C -0.50050664 -0.4765387 0.77251005
O -0.8638224 0.44534615 -1.4974416
H -0.8670225 1.4563181 -1.1270813
H -1.027952 0.38788354 1.1832799
H -1.213061 -1.3026307 0.6537636
H 0.6177507 -0.91565347 -1.0688289
H 1.254509 1.3113557 -1.6444185
