11

N 0.66029495 0.14450148 2.9690983
C -0.10416877 0.29948407 -0.44676074
C 0.09053635 -0.12370668 2.001368
C -0.6356624 -0.4395182 0.76253456
C -0.35882387 -0.30577597 -1.770603
O 1.1726109 -0.23546208 -0.87238467
H 1.7044681 0.44718656 -1.3033634
H -0.5825613 -1.512606 0.55860156
H -0.021041973 1.3827131 -0.2837787
H -1.691872 -0.17460276 0.88986915
H -0.2337801 0.51778644 -2.5045815
