12

C 0.47538188 0.0637576 0.60241586
C 0.5139714 0.28696248 2.0096877
O 1.6173555 -0.3903709 0.2030394
N -1.542128 -0.088146985 -2.307435
C -0.5431274 -0.29251185 -1.5599722
N -0.55484825 0.19183286 -0.25197813
H -1.3929702 0.6627675 0.05806425
H 1.7116042 -0.482926 1.4193952
H 1.1377869 1.1438239 2.2654252
H 0.38172626 -0.8170256 -1.8047531
H -0.40848306 0.23029236 2.5881858
H -1.3962693 -0.5084554 -3.222075
