12

N 0.85907423 -1.7357343 0.56948996
C 0.26626796 -0.54553694 0.16881497
C 0.9292587 0.39338586 -0.6273977
N 0.34863245 1.5064921 -1.0622271
C -0.9188806 1.6966273 -0.699638
N -1.6540539 0.8811977 0.057252288
C -1.0557258 -0.22595805 0.4840356
H 1.8669988 -1.7335984 0.60552716
H 0.44362122 -2.1797352 1.3759433
H 1.9654546 0.23509035 -0.92292273
H -1.401789 2.6034892 -1.0533738
H -1.6488583 -0.89571923 1.1044965
