10

O -1.3405625 1.320628 -1.5700049
C -0.4817734 -0.22450773 -0.03380654
C 1.4210821 -0.47999305 0.9647643
N -0.62369287 -1.2896329 0.7186319
O 0.5696987 -1.4516209 1.3499545
C 0.8257256 0.34473598 0.08015118
C -1.5949453 0.25524226 -0.8641315
H 2.4041524 -0.5196772 1.4104127
H 1.2159508 1.2149585 -0.42408067
H -2.3956356 0.82986706 -1.631891
