10

C 0.817557 -0.09468208 0.7846924
C 0.44683766 1.1381637 0.26127642
N -0.50885165 1.2592287 -0.6574021
C -1.0908701 0.12656167 -1.0467248
N -0.82246757 -1.1083274 -0.619768
C 0.13770458 -1.2045617 0.29880816
H 1.596263 -0.18492606 1.5331775
H 0.9284895 2.0572362 0.5861793
H -1.8735136 0.21645826 -1.7971753
H 0.36885107 -2.2051516 0.6569367
