10

C 0.9543149 0.18823208 -0.5726993
C -1.2557839 -0.11048036 -0.18112148
N 0.24625003 0.24210453 -1.7030026
C 0.47374296 0.581255 0.78890043
N -1.0522332 0.25168368 -1.4142815
C -0.09781318 -0.6532111 0.63337314
H -0.08323393 -1.5603768 1.2361771
H -2.231471 -0.004572082 0.2847115
H 1.0259067 1.0593795 1.5924983
H 2.0203202 0.0059854384 -0.66455555
