10

C 0.83175309 -0.24146580 0.86034847
C 0.41580105 2.21244067 0.67422901
N 0.68456811 1.01588151 0.71764533
C -1.93426529 -0.50322139 -1.23306030
N -0.93407877 -0.87099093 -0.62497510
C 0.00888028 -1.21384527 0.16173420
H 1.60855786 -0.59360342 1.52886432
H 0.93937963 2.80979479 -0.08347658
H -1.81807536 -0.34479256 -2.31264965
H 0.19747928 -2.27019790 0.31134059
