10

C -1.2090932 -1.4992958 -1.3435987
C 0.8400141 0.26455384 0.84540284
N -0.17554471 -1.188986 -0.759749
C -1.088632 1.8439894 0.9679631
N -0.10145665 1.1226133 0.86319727
C 0.80991685 -0.91852295 0.0027125843
H -1.2936131 -1.1785729 -2.389594
H -1.1320273 2.7215517 0.30987078
H 1.6986599 0.43298203 1.4846988
H 1.651776 -1.6003127 0.019096432
