10

C -0.6010388 0.6959938 -0.31814536
O -1.557371 -0.05799326 -0.99973017
C 0.42702183 0.06939871 0.25929752
O 1.4935437 0.7015755 0.81189466
N 0.5180885 -1.3083606 0.4025641
H -0.16484497 -1.7689999 -0.1802209
H 1.4578195 -1.6492926 0.24653356
H -2.348761 -0.09666694 -0.44630176
H -0.6833293 1.7799422 -0.34025276
H 1.4588718 1.6344033 0.5643611
