10

N 1.64427118 1.18782464 -0.09686083
C 0.70702699 0.19114985 -0.08605411
N -0.60055928 0.46025435 0.23905201
O -2.34260060 -1.10618823 0.42620493
C -1.09436619 -0.73923191 0.19159633
O -0.25801247 -1.70115573 -0.12552383
N 0.99557142 -1.06273674 -0.33031938
H 1.26992566 2.10188824 -0.29990612
H -2.82363281 -0.29873126 0.65942744
H 2.50237588 0.96692737 -0.57761651
