10

N 1.1566776 -0.89145464 0.31159028
C -0.9906076 -0.66417575 0.59864634
N 1.4635025 1.1680386 -0.785992
O -2.1886494 -1.0263245 1.0244766
C 0.6775073 0.21794532 -0.19316961
O -0.006278618 -1.4914738 0.86702025
N -0.67523444 0.41345248 -0.05259997
H -2.7942731 -0.31564355 0.7677199
H 2.3771036 0.853248 -1.0732292
H 0.98025244 1.7363877 -1.464463
