10

N -0.16032077 -0.7865683 -0.086789526
C 1.1202588 -0.96623236 -0.37330407
N 0.90542555 1.1881543 -0.055474382
O 1.3849851 -2.1798122 -0.59939253
C -0.24795769 0.57007575 0.08219908
O 1.8305805 0.13461167 -0.38265148
N -1.4193138 1.2216178 0.31593296
H 0.022169752 -2.059937 -0.3262852
H -1.319799 2.182226 0.60328376
H -2.1160283 0.6958643 0.8224814
