12

N -0.9404734 0.038976453 -1.0895475
C 0.0057769194 -0.48225874 0.89432555
C 1.0428765 0.013668592 -0.13711078
O 1.5647863 1.2939575 0.17170799
C 0.28818035 0.0964149 -1.4718593
N -1.2786441 -0.06454552 0.31875384
H -1.7298474 0.20064142 -1.701882
H 0.8867772 1.9482194 -0.044812776
H -1.969003 -0.8083086 0.39369008
H 0.061809912 -1.5721861 0.99375314
H 0.16013162 -0.014121054 1.8663777
H 1.907629 -0.6504581 -0.19339591
