12

N -0.7439056 -1.0215225 -1.0316346
C -0.23406683 -0.6338398 0.2781799
C 0.56873107 0.66406804 0.08723745
O -0.17066428 1.5735533 -0.6789184
C 0.8894766 1.2593733 1.3963766
N 1.1544594 1.683503 2.4375665
H -0.042341437 -1.5295476 -1.5629303
H -1.559336 -1.6140238 -0.95176995
H -1.0906904 -0.4126661 0.9279633
H 0.38554096 -1.3921543 0.77452374
H 1.5289589 0.4223707 -0.40037146
H -0.68616223 1.0008856 -1.2762227
