12

N -0.34396225 1.202379 0.47563308
C -0.95523226 0.08891364 -0.14950868
C 0.18683735 -0.816505 -0.73789173
O 0.98327523 -0.06464606 -1.5775579
C 1.0459962 -1.1252273 0.52921873
N 1.1417959 -0.27405292 1.3547734
H -0.16516042 -1.7057246 -1.2563471
H -1.6376693 -0.5226135 0.46250403
H 1.1299039 0.5824749 1.8713597
H 0.99570376 0.821986 -1.1640123
H -1.468993 0.34608963 -1.0912446
H -0.9124952 1.4669262 1.2830732
