12

N 0.5092446 1.659338 -2.4655132
C -0.021688893 -1.0881538 -0.50641793
C 0.47753745 1.0718952 -1.4708949
O -0.05770061 -1.7072487 1.1345135
C 0.40270877 0.3330122 -0.18956128
N -0.5621506 0.9024779 0.7549037
H -1.469363 0.96064806 0.29688433
H 1.3928766 0.4060164 0.2859558
H -0.28687036 1.8363414 1.0437384
H -0.84454274 -1.844105 0.4308255
H 0.82968724 -1.6564522 -0.90029687
H -0.36973858 -0.87376946 1.5858629
