12

N -0.74458545 -1.0223311 -1.0295138
C -0.23658243 -0.63327307 0.28059304
C 0.5693891 0.66502464 0.08559737
O -0.16786854 1.5727427 -0.68204683
C 0.89007545 1.2605145 1.3933437
N 1.1561357 1.6780623 2.4367537
H -0.040441673 -1.5273422 -1.5604281
H -1.5577525 -1.6159523 -0.9530982
H -1.0916928 -0.4086518 0.93024063
H 0.38311756 -1.3925161 0.7757653
H 1.5286509 0.421193 -0.40247023
H -0.68844515 1.002529 -1.2747364
