9

O -1.02121304 -1.24039688 0.57418308
C -0.18290871 0.62391380 -0.27921640
C 0.35792282 -1.39013896 0.26200874
O 0.11581574 1.83915575 0.31866685
C -1.42575225 -0.00608228 0.33622638
N 0.91165914 -0.36398852 -0.19153977
H -0.42374399 0.71486625 -1.35772410
H 0.77063168 -2.37228696 0.45678616
H 0.89758867 2.19495787 -0.11939101
