9

O 0.3343902 1.9501058 0.18908444
C -0.03790824 0.6719518 -0.031439256
C -1.4087034 0.2091554 -0.025381794
O -1.1812046 -1.1606994 0.089561
C 0.14470513 -1.3977354 0.255255
N 0.90219265 -0.37388104 0.20020723
H 0.4376288 -2.4299097 0.39985567
H 1.2928598 1.9962629 0.07673791
H -0.48396024 0.5347495 -1.1538801
