9

O -1.1584454 -1.2882453 -1.0794777
C -0.38015255 -0.4745138 -0.34532228
C 0.47725537 -0.7912969 0.65412116
O 1.0308334 0.39492077 1.0823449
C 0.46994352 1.3330308 0.31355402
N -0.37693915 0.8862392 -0.55500704
H -1.6345989 -0.7261325 -1.7063966
H 0.8005493 -1.6906421 1.1504506
H 0.77155447 2.3566399 0.48573288
