9

N -1.594511 -0.047351338 -0.60961527
C -0.39094964 -0.2687589 -0.1463843
C 0.63152725 0.6743097 0.2383559
N 1.7630743 0.18375939 0.67382896
N 2.7347834 -0.24268337 1.0478952
O -0.23615794 -1.5430334 -0.07829382
H -2.0047767 0.8604449 -0.7825454
H -1.4479203 -1.367241 -0.5447539
H 0.54493046 1.7505541 0.20151277
