9

C 0.7766904 0.11945267 -1.6535052
C 0.15217862 0.024455613 -0.33367357
C -0.3490556 -0.04137524 0.7603832
C -0.97437084 -0.15006852 2.0666294
O -0.66015065 0.5132186 3.0272503
H 0.81672275 1.1603738 -1.9847311
H 0.21985808 -0.4595397 -2.397292
H 1.800684 -0.26358247 -1.616202
H -1.7825567 -0.9029348 2.131141
