9

C -1.359553 -0.40383783 0.53810185
C -0.12992877 -0.5631417 0.83106333
C 1.208333 -0.32189453 0.6718161
C -1.3288118 0.29170835 -0.7256836
O -0.30795816 0.90252477 -1.1503795
H -2.1969779 0.3046451 -1.3890448
H 1.8776026 -1.1310791 0.38743758
H 1.6435087 0.45627636 1.3001223
H 0.59378546 0.4647985 -0.46343327
