11

C 0.40444416 1.2601098 0.21362884
C -1.1259636 -2.006388 0.07464072
C -0.36862516 -1.0130472 0.5913893
C -0.6368039 0.26425233 0.02227846
O 0.42086065 1.6879479 1.3600088
N 1.1861733 1.7122033 -0.80796987
H 1.6347736 2.603662 -0.65110826
H 0.89512753 1.5086333 -1.7515919
H -1.970455 -1.7528473 -0.56206334
H -0.8990439 -3.0558453 0.23596121
H 0.45951256 -1.208681 1.274826
