11

C 0.62805888 -1.15177366 -0.27576904
C 0.11367932 1.03256566 0.65785684
C 0.38548029 0.26229570 -0.50838048
C -0.49130563 2.21329251 0.39863904
O 1.73423807 -1.35092347 0.20818230
N -0.25286711 -2.12101823 -0.65483007
H 0.24643298 0.65804699 1.67436194
H -0.95879871 2.81099921 1.17521769
H 0.13483217 -3.04921045 -0.74807649
H -0.55291738 2.56306834 -0.62932085
H -0.98683308 -1.86734276 -1.29788033
