11

N -0.73401564 -0.7560817 1.5609305
C -0.19460541 -0.1318697 0.4215606
C -0.12904839 -0.61254287 -0.8692824
N 0.40227854 0.39250535 -1.6182687
N 0.6911601 1.4831066 -0.90822357
C 0.3319854 1.1785955 0.33070195
H -0.22069107 -0.5289589 2.4013836
H -0.77524126 -1.7611771 1.464346
H -0.41465226 -1.560581 -1.3009592
H 0.5870819 0.39200503 -2.6066332
H 0.45574814 1.9049982 1.1244444
