11

N 0.71847785 1.2201856 0.9896563
C 0.5018117 0.0890452 -1.1985179
C -0.7880625 -0.63673735 0.7261161
N 0.019862523 -0.78136986 -1.9905534
N -1.5294782 -1.4256488 1.2987537
C 0.11232154 0.18120995 0.21772505
H 0.16637118 1.4575479 1.8037634
H 1.2421155 0.8514721 -1.4770852
H -2.5243638 -1.2149833 1.2331976
H 0.4395265 -0.67742246 -2.912297
H 1.6414177 0.9367012 1.3092418
