11

N -0.85189001 -1.35913751 1.86696759
C -0.45346955 -0.59388404 0.99769168
C 0.23496126 -0.09834693 -1.27722762
N -0.14550322 -1.21399615 -1.75450241
N 0.55201910 1.54396978 0.54398058
C 0.10023706 0.24742866 0.14693166
H 1.55903063 1.54409938 0.68626204
H -1.86227501 -1.38240292 1.99756535
H 0.05819529 -1.24897348 -2.75140646
H 0.69277477 0.71206478 -1.86082327
H 0.11591972 1.84917785 1.40456083
