17

C -2.07614612 -1.00314629 1.09542821
N -0.97353833 0.05891682 1.40374944
C -0.33116587 0.90565129 -1.19505838
O 1.16168391 -0.77357241 1.64685500
N 0.62531181 0.17393067 -0.37748919
C 0.39185827 -0.21104142 0.90100900
C 1.94116640 -0.06874852 -0.93866746
H -1.58522565 -1.91815240 1.46894248
H -1.33348373 0.95978358 1.10216001
H -2.01942974 -1.08338758 -0.00115481
H -1.34953044 0.55388393 -1.01574031
H 2.53653737 -0.62155482 -0.21412387
H -0.88843735 0.08775307 2.41749969
H -0.28098660 1.98847389 -1.01425107
H -0.10243095 0.72270247 -2.24764569
H 2.43492053 0.88253207 -1.17120203
H 1.84889639 -0.65402450 -1.86031133
