17

C 0.56952983 -0.6474345 0.51611334
N -0.6158776 -0.7768479 1.3924664
C 1.66022 0.56960285 -1.2542616
O 1.4402652 -1.4811678 0.62596595
N 0.5340007 0.38825467 -0.35758415
C -0.51998687 1.3916689 -0.38847256
C -1.845084 -1.5576152 0.8283405
H -1.3600572 -2.4973865 0.51317245
H -0.95855695 0.11926565 1.7265759
H -0.5558256 1.8294153 -1.3888843
H -2.0491931 -1.0200089 -0.11052513
H -0.33873692 2.1988008 0.33499172
H 2.165352 1.5192891 -1.0403973
H 1.3094844 0.5813346 -2.2922096
H -0.2976547 -1.3037192 2.2029626
H 2.357732 -0.2544274 -1.1147053
H -1.4956108 0.94097567 -0.19354899
