11

C -0.8789549 -0.8010844 -1.1915183
C -0.12663986 -0.06356446 -0.14220333
C -0.26225913 1.1329322 0.46802348
N 0.7588506 1.3036244 1.3970237
C 1.4444877 0.21996573 1.2998441
O 0.9843291 -0.66352993 0.39599794
H -1.2572763 -1.7544074 -0.81235796
H -1.7304691 -0.1971361 -1.5167987
H -0.24997054 -1.007129 -2.0622249
H -1.0156794 1.8916205 0.3149856
H 2.333582 -0.061291616 1.8492284
