11

C 0.17093413 0.7154916 -0.29698765
C 0.48796952 -1.6095444 0.73134816
C -1.2251222 1.0811669 -0.33968046
N 1.2103249 -1.0990182 -0.2760341
C 1.3767725 0.3106619 -0.41156924
O -0.39266 -1.0685378 1.4024553
H 0.7607546 -2.6649065 0.9071208
H -1.7341564 0.73015296 0.56029034
H 2.3338664 0.76989406 -0.6314842
H -1.6987123 0.66053975 -1.23374
H -1.2899711 2.1741 -0.411719
