11

C 0.67512465 -1.3295779 -0.13888425
C -0.105120406 -0.056376174 1.8711264
C -0.33470717 0.82046264 -1.4392551
N 0.82127553 -0.1957387 0.8192135
C 0.23382692 -0.19413099 -0.53907096
O -1.0597546 0.67776555 1.8340898
H -0.51279944 0.4012699 -2.4309878
H 0.3481742 1.6725897 -1.5173078
H -1.2790377 1.1759396 -1.0169585
H 1.0260301 -2.3427217 -0.21235667
H 0.18698797 -0.629482 2.7703915
