10

O 1.7517059 -1.1313938 1.0120562
C 0.8039739 -0.609774 0.5022909
C 0.50647986 -0.08440336 -0.9298815
C -0.72060704 0.5838402 -0.30825227
O -1.5208809 -0.4636393 0.19817023
C -0.4718875 0.026141647 1.0342771
H 0.29291093 -0.8216128 -1.7073623
H 1.2948601 0.5977247 -1.2603661
H -1.1983464 1.522262 -0.56249386
H -0.7382087 0.38085452 2.0215611
