10

O 1.51509658 0.59803426 -0.83108648
C -0.94436067 0.14755543 -0.36860877
C 0.46381272 0.64327433 0.05520396
O -0.40959005 -1.20235401 -0.47999489
C 0.01025537 -0.64191095 0.79680682
O -1.28692795 -0.04465974 1.02035846
H 1.42309249 -0.23830429 -1.31738760
H 0.50498306 1.56192595 0.64087417
H -1.71053679 0.47880185 -1.06876291
H 0.43417518 -1.30236266 1.55259691
