11

O 2.2567234 -0.24111663 1.3653418
C -0.8404125 0.45274416 0.23926143
C 0.2656312 1.0927233 0.8138748
C 0.017272824 -1.1468785 -0.85413975
N -0.79365677 -0.14614184 -1.1252996
C 1.1504478 -0.014377997 0.9519774
N 0.23252906 -1.1069616 0.4458306
H -1.8770518 0.6585194 0.524166
H -1.1209204 0.23106723 -2.0054433
H 0.33191952 2.0890865 1.2309209
H 0.3775173 -1.8686638 -1.5864899
