11

O -1.66814918 1.52639246 1.23559056
C -0.81661132 0.73901245 0.97315393
C 0.62763087 0.40634230 0.86789700
C 0.72231464 0.08159837 -1.29049001
N -0.21648320 -0.85800154 -0.89936033
C -0.45288206 -0.63530406 0.50000513
N 1.28046930 0.77764274 -0.37336041
H 1.25404974 0.37802173 1.75387228
H 0.97028918 0.17591366 -2.34335033
H -0.99216093 -1.07366896 -1.50797495
H -0.70846710 -1.51794922 1.08401671
