11

O 0.35825104 -2.2750852 -1.1074736
C 0.11398155 -1.2419667 -0.50166535
N 1.1216817 -0.19031791 -0.37873805
C -0.7077634 0.6101249 0.616102
C -1.0168622 -0.6976244 0.16444501
C 0.6719129 0.88376343 0.27653918
H -0.5684142 1.4200416 -0.32848436
H 1.978018 -0.24443056 -0.91187596
H -1.2391824 1.181245 1.3715988
H -1.9721271 -1.1915265 0.24356143
H 1.260504 1.7457768 0.5559911
