11

C -0.74135959 0.65316635 0.02069305
C -0.43735386 -0.65704058 0.70368150
C 1.36803264 -0.22496828 -0.86454322
O 0.25099848 1.62554836 0.27597036
C 0.35380925 0.88330616 -0.94744303
N 0.85661624 -1.00065760 0.07097176
H -1.75886158 1.01148085 -0.10690610
H -1.19079622 -1.42340584 0.49075779
H 0.24121048 1.47876423 -1.84807291
H 1.38271219 -1.79401317 0.41813596
H -0.32500811 -0.55218046 1.78675475
