11

N 1.6160231 -1.6006384 0.6410189
C 0.7586319 -0.73470074 0.30472964
C 0.8551686 0.6706481 0.73575723
N 0.019170824 1.5900013 0.43104386
C -1.0544157 1.2046518 -0.3744814
C -1.2033206 -0.04984133 -0.8018812
O -0.32533672 -1.038494 -0.48608005
H 1.3947697 -2.5174491 0.2556211
H 1.7143325 0.9122307 1.3595114
H -1.7656648 1.977476 -0.63730735
H -2.0093586 -0.4138843 -1.4279321
