11

C 0.011125271 -1.1002756 -0.40663096
N 0.9607638 1.275796 -0.70430934
C -0.6022952 -0.24211842 0.6287947
C -0.18879795 0.41391355 -0.6167061
N -1.0053797 -0.04548223 1.8017286
H 0.6997181 2.214535 -0.41367847
H 1.0244031 -1.4619374 -0.23569056
H -0.96548307 0.6694522 -1.3354498
H -0.6078648 -1.7722781 -0.9974417
H 1.6785896 0.9662212 -0.05601516
H -1.0047791 -0.91782576 2.3353987
