11

C -0.010456742 -0.88879347 1.2396815
C 0.26366958 0.4083606 0.6529272
C 0.020948708 0.211724 -0.8217791
O 0.26486722 -0.91330624 -1.4384845
C -0.59105474 1.2276696 -1.6242435
N -1.0505404 2.109101 -2.218587
H 0.5120547 -1.5069073 -0.6775845
H 1.2917756 0.77341384 0.79610294
H -0.41403586 1.2228283 0.95878726
H 0.7593735 -1.4558958 1.750142
H -1.0466014 -1.1881944 1.3830377
