11

N 0.46743527 0.33924854 -2.9249349
C 0.36243233 0.62982833 -1.8130716
C 0.20813946 0.9672123 -0.39308283
C -0.5981461 -0.0885616 0.34223178
C 0.058393337 -1.1822691 1.0527493
O -0.47375217 -0.061040986 1.7498254
H -0.28273615 1.9427059 -0.31099975
H 1.1968535 1.0595734 0.06898488
H -1.6136738 -0.23565228 -0.024195261
H -0.4700842 -2.122919 1.206185
H 1.1451384 -1.2481253 1.0463079
