11

N -2.4026566 -1.6478345 -1.0089403
C -0.9734248 0.026556797 0.41470888
C 0.5145931 -0.109051585 0.120799266
C 1.7038337 1.2299979 -0.36285943
C -1.7877487 -0.9011046 -0.37538606
O 1.2377923 0.80876845 0.89912474
H -1.1290014 -0.1690198 1.4820626
H 0.9263193 -1.1208366 0.16929735
H -1.280723 1.0573246 0.21509717
H 2.5575879 0.5342583 -0.58435917
H 0.63342863 0.29094097 -0.96954495
