11

C -0.93553513 1.3030632 0.29559153
N -0.08852092 0.16011216 0.028588647
C -0.38146308 -1.1503997 0.00819999
N 0.6948578 -1.8584981 -0.27680704
C 1.6390324 -0.8966221 -0.42369208
N 1.2181572 0.3392775 -0.24997678
H -0.575207 1.828125 1.1833256
H -0.9142205 1.9794251 -0.5615793
H -1.9552929 0.95373815 0.46346718
H -1.372163 -1.5418766 0.20031394
H 2.6703553 -1.116345 -0.6674318
