12

C 0.55690956 -0.6476988 -1.849552
C -0.08189026 -0.74165845 -0.4807807
O -0.6064625 -1.7456735 -0.05134956
N 0.0081578195 0.42067996 0.26906455
C -0.47373715 0.54148877 1.5641602
N -0.347809 1.6429243 2.1780617
H 0.13402435 -1.4234751 -2.4876568
H 0.40336093 0.334038 -2.309248
H 1.6361004 -0.82062274 -1.758514
H 0.45078906 1.2428393 -0.117468506
H -0.93327886 -0.3776099 1.9332446
H -0.74616426 1.5747681 3.1100383
