12

C -0.88545865 1.3440018 0.251732
C 0.5388349 -0.61056167 -0.2715668
O 1.0688409 0.19276802 -1.2291645
N -1.8246872 1.7905517 0.98089975
C 0.9275986 -1.861262 -0.02127734
N -0.46864957 0.040071655 0.42588305
H -2.029884 2.7535505 0.74041146
H 0.45394164 -2.443279 0.7609351
H -0.34511262 1.8820717 -0.5302334
H 1.7771797 -0.2923512 -1.6714383
H 1.7225772 -2.324216 -0.59613776
H -0.9351809 -0.47134563 1.1599567
