12

C -1.2506089 -1.4712181 -0.81380033
C 1.0584266 1.0671405 0.75173736
O -1.5263546 0.6479896 -0.21495177
N 2.2836106 1.2089615 1.0256484
C -0.6321372 -0.2785885 -0.33797145
N 0.6400821 -0.062233713 0.042858876
H -1.5429059 -1.3842595 -1.8606291
H 1.3444269 -0.7503725 -0.1836875
H 2.4331326 2.071985 1.5430956
H -2.2171388 -0.3463893 -0.38955563
H -0.8247377 -2.442298 -0.5606616
H 0.23420453 1.7392833 0.9979173
