9

O 1.40925360 -1.38605601 0.57139703
C 0.51727201 -0.41788332 0.30314025
N 0.31497272 0.62865152 1.13218421
N -0.97973599 0.84975416 -0.52394385
N -0.60152478 1.39976770 0.62170734
C -0.31116260 -0.30416523 -0.78692837
H -0.47137716 -0.90382195 -1.66612289
H -1.69156521 1.30233444 -1.07473041
H 1.81386726 -1.16858124 1.42329669
