9

O 0.83809185 -1.7188754 -0.624756
C 0.27407303 -0.5714726 -0.21622853
N -0.65802646 0.0715608 -0.8985917
N -0.90656674 1.1223129 -0.122056365
N -0.21904804 1.2089168 0.9927366
C 0.5577776 0.13015771 0.96808
H 0.44643492 -1.9597235 -1.4744536
H -1.5904204 1.8133789 -0.3813773
H 1.2576841 -0.09625554 1.7566469
