14

C 0.43760464 0.5546709 -0.0888992
N 1.3829062 1.4021356 -0.13022016
C 1.8695649 -0.8727552 1.0846713
O 0.5864798 -0.6376961 0.5105932
N -2.970782 0.035922922 -1.1168679
C -1.8578637 -0.24176666 -0.5712675
N -0.8379494 0.68768764 -0.61760396
H 1.8075752 -1.8708448 1.5197779
H 2.6500335 -0.8326101 0.31849703
H -3.6189024 -0.73462343 -1.001894
H -1.594844 -1.160979 -0.046584964
H 1.1153648 2.2513375 -0.61789805
H 2.093115 -0.12704213 1.8528745
H -1.0623024 1.5465633 -1.0951781
