14

C -2.393925 -0.07623155 0.97373104
N -1.3525373 0.13798872 -0.012713666
C -0.03343613 0.036339965 0.34458148
O 0.35604334 -0.079115964 1.4914613
N 0.84160876 0.10548015 -0.73615456
C 2.2148159 0.004575593 -0.5931582
N 2.9640136 0.11126397 -1.6151252
H -2.0356052 0.29504207 1.9339105
H -2.648419 -1.1382644 1.0838447
H -3.2877226 0.47918043 0.6824057
H -1.5961794 -0.019444484 -0.9776533
H 0.51459855 0.30116665 -1.6733031
H 2.519807 -0.1681234 0.43974248
H 3.936938 0.010142389 -1.3415693
