10

O -0.9806628 -1.498868 0.17063779
C 0.001984284 -1.3703727 0.8606163
N 0.55175436 0.98099494 0.35226193
C -0.3310366 1.0434204 -0.734171
C 0.74583256 -0.06995984 1.0250112
N 0.08031459 0.7809726 -1.9042093
H -1.3177347 1.4385722 -0.46004024
H -0.6656678 0.9488464 -2.5783887
H 1.502901 -0.04385228 1.8138496
H 0.4123152 -2.2097535 1.4544322
