9

O -0.08835337 -1.7642401 0.59502906
C 0.23430362 -0.53453493 0.071485564
N -0.44272786 1.6580238 -0.597239
N 2.476411 -0.24465942 -0.8349615
C -0.734278 0.53267604 -0.07292742
N 1.4336047 -0.3873375 -0.41490895
H -1.719222 0.24225688 0.31361935
H 0.10212393 -1.7652087 1.5435429
H -1.2618622 2.2630243 -0.60363984
