10

N 0.21842612 0.02998722 1.51974641
C -0.48682619 1.12407848 1.48096594
C 0.22018627 -0.68994632 0.24974474
N -0.93663028 1.18942559 0.04340434
C -0.55531846 0.19519082 -0.67556463
C 1.55381050 -0.99757492 -0.28397013
N 2.60214051 -1.22734814 -0.70453213
H -1.51008813 1.95448475 -0.29274345
H -0.78217500 0.05784865 -1.72413462
H -0.32352546 -1.63614636 0.38708337
