10

N -0.68637013 1.2548672 2.0429857
C -0.3628232 0.3085481 -1.2888829
C -0.20382549 0.73138976 1.1214881
N 0.80062693 0.84605676 -1.2384237
C -0.4161153 -0.4872105 -0.028069688
C 1.1337063 0.4002253 0.075488694
N 0.96611124 -1.0109806 0.030942164
H 1.1052966 -1.4068308 0.961201
H -1.1258751 0.4813268 -2.0397618
H -1.210732 -1.1173921 0.36303222
