10

N 0.6063343 -0.17595766 3.3019211
C 0.35208112 -0.027143916 2.1841526
C 0.04176944 0.13705358 0.79920435
N -0.65752757 1.1213424 0.28411692
C -0.7038866 0.8622814 -1.0543569
C -0.02366873 -0.2924476 -1.3492439
N 0.45220205 -0.75164473 -0.15226775
H -1.2236841 1.5199322 -1.7362398
H 0.15669963 -0.8097462 -2.2767265
H 0.99968034 -1.5836697 -0.0005602848
