9

O 1.004283 -0.94425476 -1.5018519
C 0.31024963 -0.34790474 -0.51983994
C -0.93947536 -0.62329286 -0.077042274
O -1.1976783 0.26472533 0.94083357
C -0.09120682 1.0056231 1.0359815
N 0.8467183 0.69676834 0.19913091
H 1.8630533 -0.503926 -1.5421115
H -1.7156168 -1.3285805 -0.32397294
H -0.08032679 1.780842 1.7888726
