9

O -0.6026608 -0.32972306 1.1987708
C -0.012551236 -1.30757 0.44426373
C 0.33818063 0.45759842 -0.7603732
O -0.8233873 1.9063334 0.8814691
C -0.4235017 0.8552724 0.49423072
N 0.5339883 -0.9800752 -0.6495835
H -0.06771049 -2.3056395 0.86516416
H -0.23589522 0.71494234 -1.6565462
H 1.2935377 0.98886114 -0.81739545
