9

O 1.2680451 -0.5378919 1.5561548
C 0.21150942 -0.7445091 -0.501158
C -0.9767401 1.0268022 -0.39315525
O -0.084841125 1.153507 0.67274356
C 0.62665075 0.021592198 0.6033839
N -0.87493813 -0.03408443 -1.0883718
H -1.6704334 1.8480811 -0.5054188
H 0.61339134 -1.4236008 0.7901609
H 0.8873561 -1.3098962 -1.1343392
