10

N 1.2856233 -0.6788422 -1.2235143
C -1.160163 0.5257024 1.1196111
O -1.9649063 1.5539777 1.0223892
N -0.3691416 0.31906393 0.045246728
C 0.5383575 -0.7553672 -0.0708932
O 0.60583115 -1.649355 0.7343349
H -1.9345045 0.8575819 2.0088825
H 2.0315905 -1.3571087 -1.2674366
H 1.478978 0.21915515 -1.6393458
H -0.51166505 0.96519226 -0.72927463
