11

C -0.55874929 0.12407047 1.70260225
C -0.31069939 0.51752130 0.30292822
N -0.79089606 1.14904463 -0.66314964
C 0.55345843 0.43950504 -0.86171863
C 0.51653667 -0.79900646 -1.68523529
O -0.40875402 -1.57641048 -1.66726170
H -0.65851233 -0.96353887 1.74967552
H 0.29317187 0.41554791 2.32275862
H 1.41156010 -0.97926037 -2.31508227
H 1.42600801 1.08276360 -0.96299645
H -1.47312381 0.58976310 2.07747942
