11

O -0.96330243 1.122932 -1.3604937
C 1.6670469 0.23957808 0.7116094
C -0.4793019 0.38704205 -0.47569478
N 0.6132375 0.8848097 0.3181865
C -0.8926916 -0.874874 -0.08744453
O -1.946644 -1.3993273 -0.72817343
H 1.8155248 -0.7762474 0.36196077
H 2.366888 0.7044526 1.3923553
H -0.54266053 -1.4347295 0.77351505
H 0.5321278 1.8821998 0.49993226
H -2.1702244 -0.735836 -1.4057529
