10

O 1.7569753 -1.1262816 1.0131085
C 0.8053537 -0.611223 0.50144035
C 0.5045363 -0.08652347 -0.93047136
C -0.724063 0.5818513 -0.30950502
O -1.5210063 -0.46708867 0.20245199
C -0.47129536 0.02733068 1.0336523
H 0.29294974 -0.8238588 -1.7070005
H 1.290955 0.59971607 -1.2618921
H -1.199788 1.520659 -0.5640831
H -0.7346175 0.3854185 2.0222986
