12

C 0.61273487 -0.95843895 0.63123033
C -0.69515868 0.33520214 -0.05549282
N -0.54084357 -0.16196615 1.12615273
N -1.68480925 1.13533945 -0.52687038
C 0.46438163 -0.29856837 -0.77251043
O 1.80224164 -0.80435068 1.33355200
H 1.93622779 0.13918769 1.48349510
H 1.27699883 0.37941486 -1.04557999
H 0.39791279 -2.03063019 0.63867704
H -1.51035571 1.66568547 -1.36691392
H -2.28288121 1.55812660 0.16559774
H 0.22355084 -0.95900206 -1.61133740
