11

O -0.51887224 -2.36961499 -0.61286854
C -1.26138692 -0.01188049 -0.27077934
C -0.41539173 -1.24749485 -0.19459249
N -0.00340002 0.70010503 0.50310116
C 0.65807046 -0.59449926 0.71380550
C -0.32866088 0.97631883 -0.89517987
H 0.55687459 -0.90545061 1.75560864
H -0.70894131 1.98411443 -1.04181935
H 0.47879962 0.71552891 -1.58513116
H 1.70433427 -0.62495698 0.39401735
H -0.16142607 1.37783011 1.23383816
