11

O -2.2965913 -0.62056065 -0.42557162
C -1.1537817 -0.37347427 -0.162195
C 0.11423118 -1.2132822 0.04231021
N 0.7578467 -0.050456807 0.7309302
C 0.8579232 0.98081255 -0.2837237
C -0.44262335 0.8108043 0.4129706
H -0.062294055 -2.0399 0.73701566
H 0.6577913 -1.5778838 -0.83486426
H 0.958771 0.6956984 -1.3288163
H 1.4557962 1.8369228 0.01722677
H -0.8470694 1.5513198 1.0947175
