11

N 1.8722402 0.34652978 -0.56058276
C -0.74335045 0.1293524 -0.4205164
C 0.85632443 0.13700818 0.24722178
C 0.06894098 1.2405636 -0.07568777
C -0.81876856 -0.86209303 0.7513608
O 0.5323127 -0.71987516 1.2618905
H 0.27851176 2.27642 -0.27866486
H -1.2673513 -0.03872741 -1.3586792
H -0.97742236 -1.886104 0.3978271
H -1.5380744 -0.61380404 1.5348694
H 1.7366371 -0.009270519 -1.4990387
