11

N 1.25357821 -0.67981684 -0.55206376
C 0.53554919 -0.44955638 0.67036037
C -0.16631046 0.91164117 0.62419024
C -0.94294279 0.34702933 -0.59272571
C -0.17804420 -0.95454881 -0.55952576
O -1.91303298 0.72160649 -1.18841621
H 1.50908224 0.17608213 -1.03987065
H 0.47817283 1.78121180 0.47484382
H -0.85748140 1.10999050 1.44786321
H -0.51935348 -1.94453671 -0.83771246
H 0.80078296 -1.01910228 1.55305712
