9

O 0.63054305 0.9184987 -2.3583727
C 0.020887226 0.5161069 -0.079849295
N -0.45511022 -1.2744731 2.2439184
N -1.0779462 -1.0051519 1.2001163
N -0.8232592 0.3101776 0.79393566
C 0.8729595 0.8752793 -1.014174
H 1.8846396 1.1756132 -0.76734275
H -0.2970023 0.7040162 -2.5179703
H -0.75571144 -2.220067 2.4997385
