11

O -0.21313396 -0.09318529 2.3039331
C -0.27860737 -1.1557252 0.27071235
C 0.4411742 0.48304954 -1.2835165
N -0.74284333 -0.16422887 -0.78010744
C 0.09614513 -0.030716032 1.0669979
C -0.085231595 0.9728747 0.021263652
H -0.54956746 1.9439954 0.14335203
H 0.26383278 1.1389574 -2.1334703
H 1.3734224 -0.08075838 -1.315715
H -0.7277502 -1.0948708 1.768379
H 0.42255944 -1.9193922 -0.061829086
