11

O -1.6307881 -0.13435401 -1.5315169
C 0.599798 -0.63361627 -0.3806084
C 1.4372739 0.38910195 0.2960475
N 0.51221716 -0.42508882 1.0966944
C -0.8333924 0.11141403 0.8445839
C -0.81683856 -0.15947133 -0.46569
H -2.4940104 0.21540612 -1.2724141
H 1.2072172 1.4459928 0.15983477
H 0.9928909 -1.5556571 -0.7964488
H -1.458844 0.59437865 1.5845397
H 2.4844768 0.15189415 0.4649783
