11

N -2.0004034 -0.52590805 -1.9133316
C -1.5767732 0.023859818 -0.9907864
C -0.99814296 0.69741607 0.19053768
O -0.31091458 -0.20123607 1.0257869
C 0.80482525 -0.8229204 0.4375065
C 1.8562773 0.15564942 0.08605203
N 2.6521013 0.9448058 -0.19429857
H -1.8018258 1.1211143 0.79465204
H -0.34554598 1.5122701 -0.15082642
H 1.1920943 -1.5210943 1.1806726
H 0.5283074 -1.3839563 -0.4659645
