10

C -0.22479187 0.9734648 -0.36858487
C -0.63003904 -0.039323427 -1.2367055
N -0.45497563 -1.3339039 -0.988136
N 0.13273907 -1.7110386 0.13857144
C 0.54153085 -0.7889706 1.0051075
C 0.38892084 0.58216226 0.8032486
H -0.3888753 2.0177178 -0.6163482
H -1.1184436 0.18548228 -2.1817224
H 1.0135375 -1.1806355 1.9034822
H 0.7403973 1.2950448 1.5410877
