10

C -0.78283498 0.73097238 -0.72770209
C 0.31628352 -0.07914630 -1.10589994
N -0.89319508 0.62986842 0.61839548
N -1.21001161 -0.41524826 1.41223063
C 0.85411360 -0.67093052 0.01378588
C 0.20212181 -0.08721321 1.19570172
H -1.56207983 1.16535175 -1.33668309
H 0.60924000 -0.27126525 -2.13193320
H 1.69698352 -1.35285395 0.04622960
H 0.76937917 0.35046484 2.01587548
