11

N -0.46441033 -1.1346885 -0.8312746
C -0.21101579 0.1421617 0.72290075
C 0.55532795 -0.6623895 -1.7166991
N 0.111956075 0.8358271 1.8592036
C -1.2016371 -0.060837045 -0.16394544
N 0.6033806 -0.91155595 0.18427023
N 1.50468 -0.4398356 -0.88343567
H 1.1056447 0.8571308 2.0521357
H -0.31978488 1.7446643 1.9377494
H -2.2179453 0.2453332 -0.36198637
H 0.5338039 -0.6158106 -2.7989185
