11

N -0.6487087 -0.6525507 -1.416241
C -0.46530166 0.7835652 -1.5145701
C -0.03256276 -1.2485462 -0.3660964
N 0.6902579 -0.032550443 1.7463791
C -0.14586525 -0.3656617 0.7195302
N -0.6010067 1.5016222 -0.46129873
N -1.1812394 0.43226948 0.30194008
H -0.19079854 1.1838933 -2.4890742
H 1.6859485 -0.14693998 1.6394575
H 0.39634836 0.7353275 2.3309398
H 0.49292812 -2.1904285 -0.49096608
