11

N 0.19150607 -1.66053242 -0.66628327
C 0.34302672 -0.88094329 -1.67346239
C -0.26010206 0.32534922 0.64328680
N -0.21117780 0.27761439 2.01149529
C -0.06811338 1.14152891 -0.40839105
N -0.82682065 -0.72041714 -0.16224902
N -0.59349341 0.15076883 -1.34879456
H 0.21156471 2.16016483 -0.63200635
H 0.92763078 -0.99426923 -2.57857401
H -0.20873264 -0.66377199 2.38416061
H 0.49471131 0.86450781 2.43081788
