11

N 0.98905176 -0.8480509 -1.5279946
C 0.24939676 -0.22300214 -0.5563665
C 0.5893263 -0.27632698 0.8130104
N -0.11788548 0.38418704 1.704417
C -1.1508552 1.087836 1.2087736
N -1.51093 1.1559997 -0.061469216
N -0.802344 0.4821292 -0.96209985
H 1.5300877 -1.6570271 -1.2690102
H 0.5409671 -0.9015953 -2.4307044
H 1.4375232 -0.8596278 1.1684424
H -1.7543385 1.6554782 1.9130013
