11

N -0.73492839 0.06597448 2.43063825
C -0.06315828 -0.35336155 1.43854851
O 1.14493780 -1.16538625 -0.95597468
N -0.27058436 0.21610226 0.19048363
C 0.36933946 -0.23281009 -0.95674045
N 0.00444943 0.45888494 -2.09482506
H -0.47321744 -0.43957733 3.27007697
H -1.00846495 0.90577153 0.14218909
H -0.26248591 1.42793859 -2.00351765
H 0.69845454 -1.13564503 1.42515663
H 0.59565835 0.25210851 -2.88603498
