11

N -0.69604033 0.40904218 1.9860532
C 0.020107595 -0.26163292 1.0166138
O 0.73567253 -1.2141123 1.2482626
N -0.12616958 0.28304958 -0.25291985
C 0.5250575 -0.23272288 -1.3648667
N 0.40411112 0.34951234 -2.4864564
H -0.7266454 -0.084853984 2.8649366
H -1.5531195 0.87383133 1.7235271
H -0.61750287 1.1547104 -0.3982678
H 1.099349 -1.1319869 -1.1400273
H 0.9351802 -0.14483677 -3.196855
