9

O 2.1048887 0.17195901 -0.330451
C 0.7708753 -0.014129556 -0.44761193
N 0.124408334 0.15672274 0.79832155
N 0.17459767 -0.31126377 -1.5183328
N -2.2918236 0.2980285 1.0800655
C -1.1083758 0.15649702 0.88636005
H -2.911706 -0.4878857 1.2235562
H 0.8420903 -0.37816957 -2.2827623
H 2.295045 0.4082414 0.59085464
