10

O 1.30589417 1.10473948 0.19820494
C -1.01896715 1.03268028 -0.19874457
C -2.05099029 1.61700892 -0.39959422
O 1.44194025 -1.59392847 0.40395207
C 0.23467211 -1.00339445 0.11254137
C 0.19962042 0.32615820 0.04334336
H -0.64483616 -1.62497397 -0.00078562
H 2.05517951 0.50864260 0.34206669
H -2.96646510 2.13402527 -0.57775836
H 1.44395239 -2.50095790 0.07677425
