10

O -0.9543739 1.8516068 0.9968708
C -0.29540846 1.1054299 0.026248038
C -0.14020866 -0.33877495 0.46636242
O -0.5649491 -0.7044013 1.5414525
C 0.53464526 -1.2353255 -0.45958325
C 1.1008897 -1.9457912 -1.2477823
H -1.1485206 1.2366331 1.7231187
H 0.70732254 1.5075463 -0.18188679
H -0.84289014 1.1125038 -0.9285892
H 1.6034935 -2.589427 -1.936211
