10

O -2.285234 0.97758347 -1.2071297
C 1.1986988 0.36193517 -0.12115884
C -1.1914556 -0.16317365 0.8269518
N -0.22261369 -0.6030969 1.3480603
O 0.18459526 0.8265039 -0.75302094
C 1.104804 -0.4148435 1.0103217
C -1.5372254 0.13208704 -0.85589194
H 2.1820846 0.59929997 -0.53160757
H -1.3253498 -0.8488749 -1.3045986
H 1.8916955 -0.8674206 1.5880735
