10

O 2.2025461 -0.265754 1.7014498
C 1.4117085 -0.40305755 0.8302466
C 0.2171806 0.45420003 -1.0187697
N -1.5272319 0.041211378 0.5664121
O 1.2393996 0.56458735 -0.12976873
C -1.9720429 -0.093787566 1.6518738
C -1.0576813 0.19855379 -0.71454906
H 0.773424 -1.2841443 0.65829843
H -1.799843 0.13199872 -1.5029447
H 0.5125404 0.656192 -2.0422485
