10

O 0.84475634 1.07520690 0.04502286
C -0.58834958 -2.11579416 1.34301754
C -1.28992429 -0.01804202 0.06680963
N -0.88998904 -1.13940228 0.75142548
O 2.79429771 -0.00528903 0.09294198
C 1.66548674 0.01803823 -0.26554513
C -0.48251896 1.00087921 -0.23827105
H -2.33955260 0.02267385 -0.20415877
H 1.16077204 -0.73698216 -0.88883834
H -0.87497831 1.89871163 -0.70240424
