11

C -1.3065495 0.10439181 -0.7852148
O 0.0696226 -0.016356735 -1.0818884
C 0.81878275 -0.5318871 -0.01769302
C 1.0217109 0.49273342 1.0863038
O 1.2843666 0.20620298 2.2268217
H -1.7500384 -0.8722542 -0.5422268
H -1.4859512 0.79109544 0.05683366
H -1.789883 0.5077806 -1.6750816
H 1.808979 -0.77817714 -0.4192777
H 0.38668585 -1.4508859 0.4076331
H 0.94227386 1.5473568 0.7437903
