11

C 0.17337964 -0.13483298 -1.5112557
O 0.4381324 -0.8876439 2.382475
C -0.24323457 -0.5862351 1.4347162
C -0.08775771 0.7129733 0.6617797
O -0.62401474 0.6269162 -0.62844646
H -1.0779881 -1.226106 1.0733165
H -0.3228168 -0.118577674 -2.4818077
H 0.26654324 -1.1805028 -1.1784959
H 0.96848017 1.0233092 0.6676416
H 1.1810052 0.29514474 -1.6116592
H -0.6717287 1.4755548 1.1917357
