11

N 1.6814666 -0.7150786 -1.0664586
C 0.4457933 -1.0420088 -1.0138364
C 0.81168216 0.70260674 1.0599159
N -1.6371772 1.015263 1.0114157
C -0.46031317 0.46232942 0.62986714
N -0.43111202 -0.7072706 -0.018151755
H -0.036856133 -1.6877544 -1.7588208
H -2.4413304 0.4139264 0.9137553
H -1.6211641 1.6330895 1.8073647
H 2.1109822 -1.0845045 -1.9094173
H 1.5780289 1.0094019 0.34436607
