9

O -1.1505561 -1.2900335 -1.081078
C -0.37883008 -0.47436506 -0.34783354
C 0.47900656 -0.7909558 0.651813
O 1.0289781 0.39637822 1.0829973
C 0.46678698 1.3339684 0.3163934
N -0.37877882 0.88780177 -0.55444837
H -1.6336571 -0.7294228 -1.7045711
H 0.80138546 -1.6918433 1.1446292
H 0.7656651 2.3584723 0.49209815
