9

O 0.45347442 -0.49070820 2.02699625
C -0.62678217 -0.32411061 1.13912485
C -0.20324573 -0.05338119 -0.24277855
C 0.19321115 0.19219350 -1.34724993
C 1.03695057 0.69991021 -3.64956010
N 0.63406924 0.46188342 -2.56781642
H -1.18807626 -1.26206008 1.17588076
H 1.00642646 0.29898996 1.99824826
H -1.30602763 0.47728306 1.46715499
