9

O 0.9532167 -1.4968663 1.1857135
C -0.28136876 0.13749325 -0.0709016
C -0.11929421 -0.5844277 1.1998842
C -0.35370186 0.71891284 -1.1168754
C -0.49441853 1.9216498 -3.3086617
N -0.4326162 1.3591398 -2.2747843
H -1.013403 -1.181023 1.4018614
H 1.764292 -1.0226098 0.96789885
H -0.022706086 0.147731 2.0158648
