12

N -0.92716664 2.0772755 1.791509
C -0.8552371 1.2739611 0.964888
C -0.76082027 0.22309382 -0.06566681
C 0.39726308 0.47525102 -1.0864474
N 1.4868579 -0.40882486 -0.67944866
C 1.0046197 -1.1965512 0.1946456
N -0.34668005 -1.0566841 0.5090544
H -1.7325035 0.13657416 -0.5604997
H 0.0718216 0.21308252 -2.0978875
H 0.7240405 1.5178975 -1.0929894
H 1.5751482 -1.990426 0.6682195
H -0.6373434 -1.2646494 1.454623
