11

O -0.8823587 -0.42685455 -1.0089755
C 0.8578894 0.19905448 0.16068982
C 0.41091317 -0.9485501 -0.7477457
O 0.51122653 1.4034181 -0.5116458
C -0.4162472 0.33976674 0.844224
N -1.1648802 0.5967852 1.7241715
H 1.7910483 0.21747056 0.72243094
H -2.155402 0.7429984 1.7498552
H -0.35018888 0.8293396 -1.0615442
H 1.0307181 -1.0438591 -1.6488426
H 0.36728156 -1.9095694 -0.22261773
