11

C 1.298976 0.63440526 0.57197773
C 0.101132765 -0.29254463 0.4135623
C -0.7469144 0.051340327 -0.7822711
O -0.53961843 0.9485881 -1.5569044
C -1.9313791 -0.82776535 -0.97235674
N -2.8488152 -1.5139196 -1.1143965
H 1.9455577 0.5965996 -0.3094819
H 1.8847828 0.3395313 1.4464425
H 0.97813535 1.672313 0.70173717
H -0.55168694 -0.26775792 1.2962024
H 0.40982926 -1.3407903 0.305488
