10

C -0.2450852 -1.0006478 -0.26925403
C -0.10101195 1.0353817 0.9161057
N 0.64562523 1.5996484 -0.030278185
C -0.58088136 -0.27118874 0.85092676
N 0.9710963 0.8955361 -1.1090798
C 0.5413856 -0.35937405 -1.2255526
H -0.5684331 -2.0269787 -0.41323066
H -0.3225891 1.6770128 1.766034
H 0.8503477 -0.8680047 -2.1363058
H -1.190454 -0.68138516 1.6506344
