10

C -1.01316947 0.22807267 -0.23772523
C -0.10165053 -0.57215432 -0.89228200
N 1.53121545 -0.04780235 0.79256869
C 1.16797311 -0.67417125 -0.32489885
N 0.65328630 0.72545125 1.42251929
C -0.57481718 0.85612288 0.92634069
H -2.02632833 0.37253002 -0.60106174
H -0.34650530 -1.10529270 -1.80576317
H 1.94257280 -1.28770647 -0.78009546
H -1.23257652 1.50494988 1.50039747
