10

C -1.0834715 0.24592829 -0.252524
C -0.31780088 -0.5971113 -1.0487046
N 0.9513146 -0.8945426 -0.76504314
C 1.4427603 -0.32692093 0.3361066
N 0.81210095 0.4943313 1.1755583
C -0.45541364 0.77203906 0.8686525
H -2.1137636 0.48003155 -0.49391836
H -0.7312226 -1.0530884 -1.9466279
H 2.4777792 -0.56054246 0.5786864
H -0.9822825 1.4398751 1.5478139
