12

N -2.01223968 0.68821873 -0.71250128
C 1.31633418 0.41632893 0.10019299
N -0.39783986 -0.85621695 0.17487452
C 0.76661700 -0.59061046 1.07285396
C 1.02525734 -1.01755310 -0.25833757
C -0.73665382 0.46953026 -0.32816594
N 0.24969596 1.27813783 -0.39066883
H 2.32391025 0.80728851 0.17031528
H 1.50074139 -1.88887825 -0.68907326
H 0.96401035 -1.00717080 2.05199372
H -2.71167981 0.05141767 -0.36121614
H -2.28815276 1.64950777 -0.83026743
