12

N -2.0444853 0.6242003 0.9003425
C 1.7745482 0.04517769 0.030027665
N -0.020731922 -0.55625725 0.9346303
C 0.7734938 0.28594962 -1.0386876
C 0.9581945 -1.0326716 -0.036469962
C -0.89183825 0.22814736 0.29853716
N -0.5431835 0.6860617 -0.89309424
H -2.7231038 1.0626712 0.30292708
H 1.0664293 -2.0970373 -0.26327702
H 2.829116 0.26908362 0.13542765
H 1.2070594 0.43429714 -2.0246828
H -2.3854983 0.05037771 1.6543189
