11

C 1.1851299 -0.36436158 0.5875168
C -0.115204334 -0.21832933 -0.15301491
O -0.1013407 0.5463099 -1.3326031
C -0.8493165 1.0462409 -0.21088679
O -0.7684608 -1.4309478 -0.23931322
H -1.4969714 -1.3389906 -0.86896914
H 1.6895782 0.6026066 0.66371787
H -0.4473462 1.9508137 0.24396752
H -1.932443 1.0273887 -0.339958
H 1.000835 -0.7555008 1.5923507
H 1.83554 -1.0652295 0.057192165
