10

C -2.60768741 0.50635676 0.75729718
C 1.02287776 0.63366678 0.33309710
C -0.15755438 -0.05237712 -0.01221418
C -1.49854361 0.22943948 0.39337428
N 0.16016575 -1.06288080 -0.82354777
N 1.46557688 -0.94845199 -0.92947155
N 2.04324612 0.03768996 -0.26838986
H 1.16151660 1.49649227 0.96542591
H -3.59802616 0.74561017 1.07577830
H 2.00842829 -1.58554572 -1.49134945
