10

N 0.5926648 -0.9159268 0.864128
C 1.5359331 0.76844436 -0.67697144
C -0.45052427 -0.29542312 0.44122598
N -0.46113086 0.79711336 -0.3443299
C 0.4905363 1.071074 -1.3424847
C -1.8078965 -0.6951994 0.8379989
N -2.8482711 -1.0670439 1.1750267
H 0.3546166 -1.7638137 1.3790534
H 2.3733928 0.5936596 -0.03642204
H 0.22067945 1.5071156 -2.297225
