11

N -0.5784249 -1.5868721 0.46810588
C 0.23730527 0.44612932 -0.90999746
C 0.98378205 -0.058602147 0.3067623
C -0.8360316 0.67017084 0.17305622
C -1.5071741 -0.77966595 0.36264014
O 0.2093976 0.72194237 1.1281148
H 0.62187374 1.4192096 -1.2308457
H 0.29580522 -2.0162838 0.70384544
H -1.508124 1.5248886 0.2106365
H 0.037581906 -0.21604837 -1.7527308
H 2.0440087 -0.12486837 0.54041266
