11

N 0.7404114 1.7369772 2.341213
C 0.25041336 1.3225875 1.380898
C -0.3465303 0.7807473 0.14473589
C 0.5796886 -0.11816005 -0.69935846
C -0.40250602 -1.2316676 -0.3128479
O -1.2407789 -0.3016186 0.40121797
H -0.8338492 1.6007808 -0.39280465
H 0.592484 0.14485452 -1.7576379
H 1.5987791 -0.2239069 -0.32579586
H -0.93796545 -1.710358 -1.1359105
H -0.00014645045 -2.0002358 0.35629
