10

O 0.38586814 -0.85633616 -1.83272935
C 0.06176953 -0.13207727 -0.54500964
N -0.55720346 -0.86237204 0.33892832
C -0.64846139 0.08102248 1.34234766
C -0.05039629 1.25354471 0.91911385
N 0.43735376 1.09611529 -0.36492517
H 1.35292221 -0.85900501 -1.95572525
H 0.09108916 -1.76647078 -1.61855116
H -1.13614347 -0.15067749 2.28008953
H 0.06320190 2.19625623 1.43646127
