10

O 0.78778523 -1.499623 -1.1711652
C -1.0970532 0.86078763 0.5333695
N 1.1115083 0.505657 0.18648794
C 0.28137925 -0.32250246 -0.36757755
C 0.17892084 1.322802 0.79803926
N -1.0156432 -0.2693986 -0.25480756
H 1.3588581 -2.0459917 -0.6004764
H -0.046162467 -1.9854655 -1.3432125
H 0.49672046 2.1792738 1.3765869
H -2.0563133 1.254461 0.84275573
