10

C -0.8595925 -0.5117292 -0.8675645
C -0.38962173 1.4469346 2.1960888
C -0.17450264 0.83426446 1.1860117
C 0.05677152 0.09785281 -0.015408587
N 1.0743369 -0.87675256 -1.697784
N -0.20439495 -1.1475066 -1.8397616
N 1.2813281 -0.08912412 -0.5392475
H -0.57314223 1.9971986 3.092063
H -1.9389083 -0.51537937 -0.81002414
H 1.727726 -1.2357588 -0.704373
