10

C 1.2035692 -0.7035909 2.3842778
C 0.13576564 -0.04755607 0.07351648
C 0.73649085 -0.41031444 1.319544
C -1.2113326 0.24822257 -0.19770207
N -0.08383896 0.4192205 -1.9288354
N 0.8344699 0.070167616 -1.0570825
N -1.3213238 0.54389584 -1.4864324
H -2.0658844 0.25845033 0.46088046
H 1.6284192 -0.9645792 3.3288376
H 0.14366522 0.5860838 -2.897004
