10

C 0.16125113 2.20805530 1.65132961
C 0.15522699 1.24705376 0.93420265
C 0.09682812 0.10446952 0.07621675
C -1.03008936 -0.63108773 -0.32965356
N -0.62418971 -1.60380976 -1.13550958
N 0.68310782 -1.42687217 -1.18346113
N 1.18133592 -0.43057903 -0.48757973
H 0.17601462 3.06518540 2.28844472
H -2.07161936 -0.49892111 -0.08097393
H 1.27213377 -2.03349413 -1.73301566
