10

C 0.3886519 2.0528762 1.500709
C 0.18184717 1.0928531 0.8058205
C -0.060211707 -0.042065497 -0.020415826
C -1.2064217 -0.7219084 -0.37282974
N -0.86862123 -1.7419318 -1.1998186
N 0.41455272 -1.7381765 -1.3831242
N 0.9125826 -0.72296214 -0.67922246
H 0.5614446 2.9074259 2.1205246
H -2.2291586 -0.5356575 -0.08267844
H 1.9053342 -0.5504533 -0.6889647
