11

O -1.6042551 -1.7043433 -0.2960993
C 0.0010077523 0.01782572 1.459884
C -0.06828636 0.07758824 -0.035402037
C -0.6938298 -1.0687069 -0.7644304
O 1.0067222 0.40502435 2.010055
C -0.09713061 1.4646873 -0.61386704
O 1.2426126 0.41455522 -0.5610913
H -0.8720514 -0.39008367 1.9887772
H -0.2840793 -1.231279 -1.7803534
H 1.7246058 0.68707067 0.27474096
H -0.35531583 1.3276616 -1.6822138
