12

N 0.56407944 -0.70606383 0.40186164
C -0.63385859 -0.61965539 1.11443707
O 0.15536874 1.32518908 -0.73024579
N 1.95070591 0.09357163 -1.25861266
C -1.87238002 -0.42884528 0.63122126
C 0.84252865 0.19860693 -0.46609154
H -2.72391022 -0.43936651 1.30171630
H -0.50606737 -0.77855401 2.18676600
H -0.64607916 1.32956370 -0.17499514
H 2.31032156 0.95557305 -1.64018542
H -2.07074423 -0.35397879 -0.43459282
H 2.63003525 -0.57604029 -0.93127895
