12

N 0.36923409 -0.80514634 0.44001153
C 0.7841329 -0.13893792 -0.57651746
O 0.45042798 1.1159205 -0.9302475
N 1.6751325 -0.68455404 -1.4572
C -0.6236181 -0.256075 1.2542909
C -1.7983378 0.27768195 0.88149273
H 2.1529288 -1.5011297 -1.1080142
H -2.1183765 0.30009717 -0.15676822
H -0.39501706 -0.33357164 2.3188117
H -2.5022967 0.6177988 1.632186
H -0.21886015 1.4414097 -0.3003655
H 2.22465 -0.033493496 -1.9976797
