12

N 1.3052425 0.04674142 1.984363
C 0.28972018 -0.1161381 1.0757017
O -0.7311587 -0.7757002 1.3655481
N 0.51135266 0.47994825 -0.12854278
C -0.72205466 0.38451275 -0.8752935
C -0.4600713 -0.35806435 -2.0341835
H -1.321351 -0.30446175 -0.15316255
H -0.7599008 -0.06246995 -3.0344849
H 0.15374182 -1.2492819 -1.937966
H 1.0763975 -0.14726032 2.9460855
H 1.9539981 0.7944045 1.7984347
H -1.2959161 1.3077698 -1.0065001
