10

O -1.34552342 -0.99988577 1.43513580
C -0.44114063 -0.38721402 0.65600321
N -0.74545272 -0.11699245 -0.63358563
C 0.37471168 0.51433275 -1.16856077
C 1.27044331 0.57202342 -0.14708065
N 0.75131544 0.00104233 1.00452652
H -1.61439449 -0.33500268 -1.09436393
H 0.40823058 0.84371482 -2.19562861
H 2.26707968 0.98989646 -0.15877921
H -0.92526942 -1.08191469 2.30233339
