11

O -1.17757084 1.73946400 -0.23944891
C -0.50655315 0.58890161 -0.00053623
N -1.08595194 -0.68758541 -0.23053409
C 0.28538077 -0.44413433 -0.71487265
C 1.23244318 -0.32996002 0.46807872
O 0.36390277 0.64603116 1.10733700
H -1.13979762 -1.27690323 0.59917023
H 1.36589134 -1.22075171 1.09227729
H 0.52346118 -0.63714688 -1.75384923
H -2.05992425 1.49976716 -0.55582317
H 2.19871868 0.12231730 0.22820062
