11

N 1.62893597 -0.96850451 -0.13086874
C 0.83323070 -0.18890899 0.63875324
N 1.09012195 -1.18077261 -1.33344329
N -0.04068938 -0.55843157 -1.36180793
C -1.47894895 0.86952375 0.10588099
C -0.24663081 0.07062664 -0.16473614
H 1.09075404 0.10251458 1.64543173
H -1.44269334 1.31243857 1.10490309
H -1.58629160 1.67626559 -0.62546150
H -2.37291811 0.24166266 0.03952362
H 2.52512935 -1.37641395 0.08182498
