10

C 0.8183829 -0.094054475 0.7841933
C 0.44613805 1.1379794 0.26099816
N -0.51204467 1.2602526 -0.6574024
C -1.0922117 0.1261294 -1.0447905
N -0.82213163 -1.1058698 -0.61950254
C 0.13868502 -1.2050146 0.29964107
H 1.5990134 -0.18544625 1.5308721
H 0.9301391 2.0566175 0.5852916
H -1.8753148 0.21697128 -1.794601
H 0.36934447 -2.2075648 0.6553003
