10

C -1.3498371 -0.29910085 0.41364953
C 1.0463095 -0.15000255 0.49538434
N -1.4393059 0.64448804 -0.45006713
C 0.97540724 0.83467716 -0.40082547
N -0.11654984 -1.0080291 0.28558627
C -0.24087869 0.3489387 -1.0691184
H 1.7866231 -0.44785574 1.2291998
H 1.58064 1.6992925 -0.6285845
H -2.1206274 -0.63483506 1.1008312
H -0.12178101 -0.98757297 -0.9760557
