10

N -2.1886156 0.434056 -0.6709708
C -0.1968008 1.141284 0.59310114
C 0.88399523 -0.9672719 0.06918791
C -1.0250528 0.20251875 -0.25396645
C 0.99504805 0.40999335 0.6907878
O -0.36038673 -1.0107175 -0.49720868
O 1.6637462 -1.8684824 0.05607515
H -2.5703547 -0.3689123 -1.1729766
H 1.8604448 0.66749203 1.2958401
H 0.9379762 1.3600401 -0.10986957
