10

N -1.5398259 -1.4204493 0.7497103
C -0.6813755 -0.6422626 0.26592
C 0.14426935 0.33430478 1.009994
C 0.9258156 0.96401036 0.13718666
C 0.6378117 0.41976112 -1.2184887
O 1.102572 0.69518375 -2.281404
O -0.34191987 -0.54846793 -1.0700423
H -1.970193 -1.9945024 0.024622787
H 0.06304356 0.45092317 2.0824628
H 1.6598022 1.7414991 0.30003816
