10

N -1.538082 -1.4183977 0.75124973
C -0.680614 -0.64035994 0.26490822
C 0.14190571 0.33380535 1.0108626
C 0.9247482 0.96328914 0.13744928
C 0.63783073 0.41894314 -1.2181917
O 1.1043961 0.69561714 -2.2806537
O -0.34281793 -0.55037266 -1.074977
H -1.9669191 -1.9929956 0.026318816
H 0.059248313 0.45187226 2.0825298
H 1.660304 1.738599 0.30050406
