10

N -1.4650902 -2.593414 -0.4350582
C -0.76156855 -1.6827965 -0.556011
O 0.3996307 -0.4416362 1.1747416
C 0.07512503 -0.5355917 -0.83249736
C 0.33484137 0.8143145 1.1581807
N 0.10253739 1.3878069 0.02488877
H 1.1282402 -0.75536877 -0.94607675
H 0.49172005 1.369006 2.0912247
H -0.34802493 0.04013841 -1.6470481
H 0.04258859 2.3975415 -0.032344356
