10

N 2.982382 -0.012146766 0.30139464
C -1.0754287 -0.94539136 0.2795407
O 0.0024210978 -1.2886235 -0.27710614
C 0.5870472 0.6291691 -0.48841274
C 1.9027644 0.214802 -0.04890752
N -1.2787242 0.32109687 0.44949397
H -1.791424 -1.7207749 0.5784151
H 0.4001624 0.5046788 -1.5484655
H 0.3982077 1.6423568 -0.14182773
H -2.1274083 0.6548331 0.8958751
