10

N -1.3188624 -0.64049536 -1.1615022
C -1.2089199 -0.74716634 0.088947214
O -0.1791463 -0.21771339 0.77399135
C 0.7681074 0.47473133 -0.032105472
C 1.8203471 0.98141825 0.8533628
N 2.6751013 1.4002784 1.5103238
H -2.1638832 -1.1072556 -1.4845304
H -1.879303 -1.2510207 0.79044646
H 0.28697932 1.3046783 -0.5587589
H 1.1995798 -0.19745494 -0.7801743
