10

N 1.2055862 2.4751134 0.97081614
C 0.25132754 -1.5580196 -0.43054193
O 0.07405899 -2.116027 0.62762594
C -0.548322 0.617874 0.36743602
C 0.43521878 1.6526446 0.7232383
N -0.06632472 -0.25166968 -0.6832618
H 0.205263 0.1522491 -1.5674573
H -1.4828101 1.1077517 0.07578692
H -0.7449039 -0.01621275 1.23556
H 0.67090625 -2.0637035 -1.3192022
