12

O -0.6531068 -1.1100291 1.5125542
C 0.8413429 0.08265912 -0.48171607
C -0.4953584 0.5212695 -1.0712945
O 0.98465806 0.3469515 0.9352515
C 0.22362594 -0.32788032 1.7866123
O -1.486846 -0.46651077 -1.0564513
H -0.8076796 1.4495252 -0.56405014
H 1.6641893 0.6590741 -0.9098766
H -1.4791093 -0.8677352 -0.17097226
H -0.31533504 0.7742296 -2.1225893
H 0.99767244 -0.98396826 -0.6687073
H 0.5259464 -0.077585444 2.8112395
