12

O -0.6640949 -1.4517471 0.87754256
C -0.06064782 -0.22319803 1.2001717
C 0.44598955 0.45383808 -0.07246495
O 1.3254566 -0.42724165 -0.7190449
C -0.7097456 0.7739186 -0.99678606
O -0.7230344 0.38092935 -2.1386378
H -0.026793987 -1.9099965 0.3103362
H 0.78615785 -0.34256902 1.8911674
H -0.8191488 0.3983621 1.6893412
H 0.9397497 1.4047841 0.18905586
H 1.0289987 -0.46201682 -1.6444532
H -1.522887 1.4049367 -0.586228
