12

O -0.85222933 -0.95957760 1.51639353
C 0.15066111 -0.34754588 1.79053363
C 0.84491694 -0.07589889 -0.47654538
O 1.02630470 0.17022517 0.93933181
C -0.38652096 0.59332981 -1.07858009
O -1.54120424 -0.19752016 -1.06306537
H 0.80562840 -1.15475389 -0.65438494
H 0.48795974 -0.14750759 2.81528745
H -1.61133055 -0.58575464 -0.17454395
H 1.76116933 0.33753575 -0.90340042
H -0.15784747 0.80019435 -2.13049904
H -0.52750780 1.56727338 -0.58052722
