10

N 0.6023315 -0.17494486 3.3044024
C 0.3489594 -0.027331425 2.185294
C 0.041131236 0.13564613 0.7995656
N -0.655496 1.1214464 0.28507802
C -0.7007689 0.86302865 -1.0543122
C -0.02263059 -0.2919299 -1.3504045
N 0.45123416 -0.752621 -0.15383315
H -1.2199224 1.5230966 -1.7342966
H 0.15851197 -0.80993783 -2.2778022
H 0.99664956 -1.586453 -0.0036912963
