12

N -1.5230405 -1.1045439 -1.3436401
C -0.61761767 -0.45344815 -0.55408454
N -0.68988836 -0.6980117 0.76607126
C 0.22006008 -0.09038788 1.5147653
C 1.1939272 0.75711983 0.99449664
C 1.1572353 0.93707246 -0.38094172
N 0.26390496 0.34936073 -1.1715654
H -1.6502866 -0.74697864 -2.2766125
H -2.3226275 -1.5004805 -0.87760997
H 0.16496651 -0.2847089 2.5836277
H 1.9280524 1.2439282 1.6223704
H 1.8753142 1.5910788 -0.87687683
