12

N -1.3579798 -0.10216144 -0.33283308
C 0.784256 -1.7959332 -0.6614314
N 0.49477944 0.30089006 0.84739745
C 0.6374759 -0.77289295 -1.4631248
C 1.1808368 -0.449437 -0.118127614
C -0.77619606 0.6306414 0.56529796
N -1.3970795 1.580705 1.3300475
H -0.7591558 2.2047899 1.7947592
H 2.2528 -0.29726326 0.033589963
H -2.2430434 1.9849657 0.967688
H 0.77491146 -2.8646688 -0.50887704
H 0.40839475 -0.41963547 -2.454386
