9

N 1.0125009 0.5782868 -0.0706357
C -0.025576388 -0.4277596 0.16653173
C 0.09672116 1.3136461 0.7491306
C -0.6167488 -0.9661226 -1.0519222
N -1.0704864 -1.3999573 -2.0213935
H -0.93706757 0.20208593 0.60436463
H 0.3392674 0.9909873 1.7848074
H 0.28432888 -1.1959198 0.8713242
H 0.91706085 0.9047533 -1.0322071
