10

O -0.38109162 1.6412461 -1.216337
C -0.16873714 0.60758084 -0.35458323
C 0.51510364 -0.5739506 -0.5358429
N 0.40856266 -1.2388631 0.64929706
N -0.28744316 -0.570296 1.5694003
C -0.64788014 0.5584685 0.97295594
H -0.034772575 1.4032665 -2.0842788
H 1.0486156 -0.9825349 -1.3807685
H 0.7836441 -2.1423771 0.88093096
H -1.2360014 1.2974597 1.4992262
