10

O -0.48361344 1.73068667 0.76745244
C 0.59257142 0.57602423 -1.13401158
C 1.10631952 -0.72178106 -0.99538103
N 0.70164623 -1.40857958 0.10749277
N -0.08761192 -0.64674151 0.77504459
C -0.37627378 0.59034344 -0.00552589
H -1.30811745 0.33565628 -0.55470937
H 1.82513526 -1.22225363 -1.63437201
H -0.59261115 -1.04129100 1.55734127
H -1.37744473 1.80793610 1.11666885
