10

N -1.5388844 -1.4217603 0.75061756
C -0.6798621 -0.6425956 0.26595792
C 0.14384097 0.3326672 1.0097349
C 0.9255215 0.9645707 0.13662632
C 0.6377946 0.42044973 -1.2177937
O 1.102981 0.6965115 -2.2809808
O -0.34228 -0.5491257 -1.0711622
H -1.971782 -1.994454 0.026371896
H 0.0630731 0.45184293 2.0814242
H 1.6595972 1.7418935 0.29920375
