10

N -1.47192738 -1.73937127 0.71285991
C -0.59609495 -0.90058374 0.34839307
C 0.33366729 -0.21543982 1.29373736
C 0.81832992 0.88263652 0.42954072
C 0.48790093 0.53689229 -1.01955706
O 0.87822250 1.01433548 -2.03778445
O -0.41266517 -0.50173838 -0.97775700
H -2.05271245 -2.01557731 -0.08204328
H 0.16861700 1.72433537 0.73945314
H 1.84666217 1.21451082 0.59315744
