10

N 0.035759695 -2.2269716 -0.6839586
C -0.033685002 -1.0294019 -0.30379805
C -0.547945 1.1453545 -0.15586255
C 0.3939203 0.78215516 0.9740554
C -0.90904945 0.030103208 -0.9231847
O 0.6749752 -0.5475823 0.80798155
O 0.82082987 1.4588432 1.8558104
H -1.0057265 2.1304123 -0.19687541
H -0.07769748 1.0237209 -1.3034225
H 0.6486183 -2.7666337 -0.07074542
