10

C 0.50563735 -1.6553224 1.5457913
C -0.29812777 2.1953936 0.6767161
N -0.37531862 1.3418683 -0.1986747
C 0.09652705 -0.9215141 -0.8030671
N 0.3973705 -1.3024279 0.3789129
C -0.27330333 0.45071656 -1.1056634
H 0.13481842 -1.6476324 -1.6067965
H 1.4953519 -1.6402454 2.0085502
H -1.20203 2.4457676 1.2354422
H -0.4809256 0.7333963 -2.131211
