10

O -1.3704184 2.2685032 0.13376004
C 0.8507458 -0.45053142 -0.18083026
C -0.99763036 1.1629777 0.087142214
O 1.678603 0.69336295 -0.17509416
C -0.59491605 -0.0956802 0.071283035
O -1.5054866 -1.0890523 0.3904861
H 1.6762068 1.0599029 0.71665066
H -1.8625048 -1.446195 -0.43434647
H 1.1609006 -1.199589 0.56272954
H 0.9645 -0.9036983 -1.1717807
