9

N 1.14347551 -0.35535571 -0.99323597
C 0.06676217 -1.24124634 -0.86968681
C -0.15475603 0.32836532 -0.79200317
C -0.41937062 0.69532601 0.49146262
N -0.56662865 1.07543009 1.63568518
H 1.77246930 -0.25817569 -0.18820464
H -1.27719691 0.63861197 2.21597913
H -0.61057353 0.86513720 -1.61609063
H 0.04581868 -1.74809272 0.11609419
