9

N 1.1089829 -0.9791895 -2.1871684
C 0.89533 -0.5106813 -1.1529016
C 0.61630464 0.05152882 0.15561223
C -0.7097183 0.6921373 0.37967196
N -0.3930415 -0.57926166 1.0052598
H 1.4918679 0.42279547 0.68178004
H -0.7665022 1.5432962 1.0542741
H -1.4041038 0.7113387 -0.4547557
H -0.83911973 -1.3519639 0.51822746
