9

N 0.97472954 0.7167842 -0.97798485
C -0.4303762 0.3751351 -0.6580974
C -0.675851 0.118975766 0.65571004
C 0.6683875 -0.6296188 -1.2076188
N -0.85612893 -0.016237052 1.8492873
H -1.0754837 -0.9378761 2.2166064
H 1.5285598 0.9415705 -0.14378119
H 1.093629 -1.2991735 -0.43304652
H -1.227466 0.7304398 -1.301075
