10

O -2.26713836 -0.59726855 -1.95610197
C -1.63777277 -0.00103118 -1.16616538
C 1.07456563 -0.41444185 0.20706202
C -0.03680165 0.54183550 0.62245660
N -1.04855455 0.70873516 -0.39490554
H -0.52222318 0.19475805 1.54301990
H 0.67759672 -1.41748725 0.02344008
H 0.37182588 1.53442708 0.83145125
H 1.82775257 -0.48291292 0.99763385
H 1.56074965 -0.06661428 -0.70789130
