10

O -1.7720504 0.3398646 -1.575261
C -1.0614568 -0.013275156 -0.6532638
C 0.30049795 -0.040599678 1.0018361
C 0.7598679 0.18825726 -0.3980968
N -1.1338128 -0.037535988 0.71503395
H 1.43851 -0.49947026 -0.89757955
H 0.6572417 -0.9327545 1.5258758
H -0.567463 -1.0659895 -0.63573104
H 0.5065803 0.8364582 1.6328763
H 0.87208503 1.2250448 -0.71568996
