10

O -1.3447324 0.22551055 -2.7319994
C 0.5456298 -0.83499414 0.6118831
C -0.8420937 0.5767244 -1.7321979
C 0.019453296 0.59461784 0.5730999
N -0.3056325 1.0413195 -0.76155436
H 0.80394804 -1.1136954 1.6378363
H 1.4380193 -0.93459207 -0.011189716
H 0.76761323 1.2877041 0.96779144
H -0.874027 0.6955014 1.2016292
H -0.20817786 -1.5380963 0.24470091
