9

N -0.93498856 0.19037887 0.49009523
C -0.00031578 -0.11477303 -0.36654443
C -0.17914845 0.70600599 1.50854865
N 1.10513283 0.71986460 1.32464583
N -0.16317729 -0.62365336 -1.61356500
O 1.23592783 0.15823053 0.03950444
H 0.61946159 -1.10301833 -2.02460973
H -1.07516144 -1.01799491 -1.78476793
H -0.60773050 1.08495943 2.42669294
