9

N -0.7177589 -0.26223472 0.5498918
C -0.6566169 0.2126853 -0.6878646
C 1.5099201 0.06965055 0.11383938
N 0.64376014 0.40603969 -0.942289
C 0.5859257 -0.35623187 1.0526892
H 0.9783586 0.7638844 -1.8239425
H -1.5762851 -0.5039612 1.0210067
H -1.4977714 0.39817095 -1.3399024
H 0.7304674 -0.7280031 2.0565712
