11

C -1.0058445 0.006370494 0.56510526
O 1.0072969 1.4955871 0.12660682
C 0.5101875 0.22044413 0.4068864
C 0.38011697 -0.8188867 -0.7192579
O -0.9709828 -1.110628 -0.33334088
H 0.4375508 -0.3779819 -1.7263262
H -1.6057876 0.8398467 0.16749616
H 0.52332205 1.8608518 -0.62526715
H 1.0251416 -1.7041193 -0.67775184
H 1.0862414 -0.14219731 1.2607875
H -1.3872421 -0.2692871 1.5550617
