11

C -1.13403299 -0.21135285 -0.02017260
O -0.60894222 -0.29990196 -1.35154227
C 0.73267832 -0.08974570 -0.88742570
C 0.28487930 -0.24997792 0.57515065
O 0.66490522 0.69659256 1.52974407
H -1.81404193 -1.03868930 0.21342374
H -1.65374831 0.74302808 0.15804164
H 1.09862782 0.92176014 -1.12156060
H 1.43388349 -0.82795517 -1.29334979
H 0.54588990 -1.22167288 0.99962252
H 0.44990122 1.57791485 1.19806844
