14

C -1.0729147 0.4164518 -2.0900338
N 0.59077275 0.61880696 1.1206642
C 1.1576445 -0.2866549 2.0975275
O -0.1618781 -1.2106031 -0.17937134
N -0.69195914 0.8886697 -0.77365303
C -0.03212442 0.10956156 0.13107257
H 1.8486489 -1.0251629 1.6591767
H -1.6438258 -0.5104243 -2.002543
H -0.21329069 0.23497611 -2.748104
H 0.38913426 -0.828415 2.6703515
H -1.7159295 1.1700696 -2.5501647
H 1.7392014 0.2981176 2.8154173
H -0.44474378 1.8558367 -0.6664395
H 0.25126445 -1.7312299 0.5160994
