11

N 0.34587163 -1.50725901 0.42729630
C 0.28565767 -0.59069815 1.29820119
O 0.24928285 0.71020134 0.97097433
C 0.33136569 0.97636420 -0.42597710
C -0.84373649 0.40662433 -1.19738193
O -0.82916717 0.29274300 -2.39622767
H -1.73155086 0.16536865 -0.57972432
H 0.36490401 -2.42013626 0.87076322
H 0.25042513 -0.68918641 2.38705036
H 0.31477760 2.06777767 -0.50674200
H 1.26217003 0.58820032 -0.84823250
