11

C 1.0108712 -0.81107223 -1.1415861
C 0.2179821 -0.16340949 -0.0591602
C -0.8837965 0.63245606 -0.05292255
C -1.0927339 0.8845769 1.3305193
N -0.20165506 0.2948511 2.0744696
O 0.63019246 -0.37047064 1.2007676
H 1.0068986 -1.8998798 -1.0314667
H 0.58384913 -0.5564938 -2.113127
H 2.0517936 -0.47363618 -1.1168818
H -1.4577494 0.9853935 -0.896102
H -1.8656526 1.4776845 1.8054898
