11

C 0.22135584 0.55847563 -1.19414902
C 0.51736854 -0.08945261 0.09227699
C -0.49293578 1.69601469 -0.73258821
C 0.03983686 -1.52492716 0.26297856
N -0.65468261 1.76561589 0.57740914
O -0.08860507 0.73608446 1.15724523
H 0.54443292 -2.15788169 -0.47180145
H -1.03849198 -1.58960251 0.09731120
H 1.60025000 -0.00782345 0.26785848
H -0.91635262 2.49764693 -1.32673500
H 0.26782352 -1.88415027 1.27019404
