11

C -0.95894384 0.7397428 -1.4796433
C 0.52892166 0.06569515 0.010634161
C 0.4415538 -0.97634244 1.1171093
C -0.021398759 -0.31186017 -1.299681
N -1.0282362 1.6082013 -0.48562226
O -0.1779194 1.2839211 0.4569234
H -1.6156394 0.9033419 -2.3263385
H 1.0285827 -1.8522891 0.8285529
H 1.5672023 0.3947939 -0.14361162
H 0.8316722 -0.5695565 2.0540378
H -0.595795 -1.285648 1.267639
