10

C 0.46545608 2.01976768 1.46475580
C 0.38444947 1.05895532 0.74614330
C 0.33229575 -0.09715621 -0.12494837
C -1.00329576 -0.63077149 -0.33017984
N -1.24429669 -2.57509978 -1.77301345
N 1.35988451 -0.62758603 -0.67636451
N -1.13699522 -1.67349188 -1.10401577
H 0.54304377 2.87473159 2.10223269
H -1.90518889 -0.22831946 0.10496346
H 2.20464715 -0.12102963 -0.40957334
