10

C -0.35600078 0.7283174 -1.0461127
C 0.19255795 -0.021807415 0.059063964
C -0.79657656 1.3579419 -1.9682426
C -0.7210318 -0.7400271 0.91476583
N 0.0047293217 -1.3462186 1.8420908
N 1.1480961 -1.393952 2.062187
N 1.4466285 -0.10163218 0.3401278
H -1.1904739 1.918853 -2.7882953
H 2.0666566 0.4099826 -0.28194422
H -1.7945852 -0.8114575 0.86635906
