10

C 0.38902658 2.0536075 1.5000705
C 0.18480313 1.0905707 0.806661
C -0.05822695 -0.043969885 -0.01808701
C -1.2066233 -0.7215965 -0.37055942
N -0.8725912 -1.7396331 -1.2010419
N 0.41261885 -1.7363343 -1.3844538
N 0.9136052 -0.7252989 -0.67988545
H 0.55917305 2.9091098 2.1184537
H -2.227996 -0.5342594 -0.07896806
H 1.9062108 -0.5521958 -0.6921896
