11

N 0.56047827 1.2716177 1.3765979
C 0.6076675 -1.2585152 -0.035304345
C 0.5437699 2.2005916 0.6218799
C -0.5804475 1.0978223 -0.017703563
C -0.5218494 -0.3302556 -0.3797722
O -0.23794843 0.72637105 -1.3004119
H 1.5430018 -0.70519394 0.07698023
H -1.4911329 -0.8029468 -0.55694586
H 0.39155915 -1.7786618 0.9033961
H -1.5382869 1.58447 0.13881235
H 0.7231884 -2.0052989 -0.82752866
