11

O 0.47323576 -1.0397893 -1.2143252
C 0.71053845 0.3440133 -0.9800616
C -0.530461 0.087332815 1.2207606
C -0.5605845 0.3799583 -0.22848713
O 0.21457393 -1.0565974 1.201993
H -1.4718686 0.3286581 -0.82584363
H -1.559678 -0.023026928 1.6139185
H 0.7195235 0.875247 -1.9342589
H 1.5945033 0.55909264 -0.3749508
H -0.07209551 0.9488483 1.7520573
H 0.48231253 -1.4037368 -0.23080213
