11

O 1.1707776 -0.33263406 1.2570479
C -0.5742896 -0.15700777 -0.39641926
C -0.11277818 1.1633308 -0.8119486
C 0.3123639 -1.0694844 0.42096356
O -0.9955904 1.0091983 0.30207157
H 0.9370742 -1.6731095 -0.24402654
H -0.5589181 1.6432781 -1.681452
H -1.3626068 -0.6443343 -0.9710427
H 0.613268 0.34120977 1.6709355
H -0.3247774 -1.7551457 1.0022519
H 0.8954769 1.4746989 -0.5483815
