11

O -1.13767727 0.80673999 0.39470198
C -0.16840107 1.31101227 -0.52745217
C 0.39491214 -1.10598113 0.19856644
C -0.50601009 -0.10808667 -0.49384130
O 1.06431528 -0.51950934 1.28797446
H -0.57620574 1.94548900 -1.31266618
H 0.76096420 1.64119530 -0.06891603
H -0.21102921 -1.96966264 0.51616037
H 0.38827717 -0.02281116 1.77010390
H -1.16416842 -0.51128004 -1.26415680
H 1.15502331 -1.46710565 -0.50047444
