12

O 0.58998747 -0.56723116 1.35378966
C -0.44410501 -1.00727376 0.43559481
C 0.40261387 0.32303521 2.27638375
O 1.17870340 1.18209632 -0.91933293
C -0.00472240 0.56095615 -1.29102399
O -0.05466333 -0.78184051 -0.86980734
H -1.37162668 -0.47491556 0.70129410
H -0.54358450 -2.08886961 0.54297801
H -0.70403695 0.55555652 2.24563664
H 1.90830125 0.63740322 -1.25045085
H -0.81705562 1.14585624 -0.84544607
H -0.13981184 0.51522687 -2.37961591
