12

N 1.8565553 0.267824 0.1296047
C -0.4153118 -0.32936642 -0.42968914
C 0.69269407 0.65192544 -0.539201
C -1.2013148 1.0288169 -0.53740567
N 0.0876799 1.7552679 -0.77782416
C 1.3919181 -0.69054514 0.87655455
N 0.03848387 -0.9725153 0.8003539
H -0.6074896 -1.0337752 -1.2465519
H -1.6257114 1.3438334 0.41954193
H -1.9309645 1.1121774 -1.3488282
H -0.29343995 -1.8859892 1.0733759
H 2.006901 -1.2476536 1.5800692
