12

N 0.15584245 1.6406118 -1.3116754
C -0.7969227 0.1104884 0.56787694
C 0.44415298 -0.42231792 1.2531304
C 0.5012239 -0.09569309 -1.068186
N 1.2827576 0.1478149 0.15301774
C 0.1965732 1.1747322 -0.13953616
N -0.7637824 -0.7073645 -0.6754951
H -1.7698629 0.28758284 1.0157819
H -1.4725784 -0.36802727 -1.3229179
H 1.0014385 -0.33998296 -1.9978129
H 0.7068388 0.07984849 2.1854315
H 0.51431894 -1.5076929 1.3403853
