12

N -0.925161 2.0817783 1.7893637
C -0.85740054 1.2762341 0.9656172
C -0.7622751 0.22259966 -0.06632248
C 0.39530653 0.47457662 -1.0844132
N 1.4878955 -0.40980545 -0.6804197
C 1.004678 -1.1948863 0.19731688
N -0.34479225 -1.0561835 0.5102749
H -1.7316327 0.1346577 -0.56162196
H 0.072816186 0.2133558 -2.0970454
H 0.7247434 1.5162245 -1.092972
H 1.576187 -1.989767 0.6679632
H -0.64036506 -1.2687845 1.452259
