11

C 1.5264084 -0.56374764 -0.46287715
C -0.8692218 0.56198376 -0.3456319
C 0.23214637 -0.18973632 0.18185386
N -1.0488393 -0.3254097 2.0903368
N -1.8917058 0.76085174 0.4101643
N -0.122993894 -0.516292 1.4248183
H 1.631429 -1.6457859 -0.59532297
H 1.579648 -0.1039672 -1.4543635
H -0.7769933 0.928538 -1.3675625
H -2.6494405 1.30115 0.007357759
H 2.3895626 -0.20758459 0.11122709
