11

O 1.2012272 0.6314054 -1.9635493
C 0.16509403 0.68471855 -1.3571568
C 0.04291328 0.1634366 0.05434999
C 0.86783653 -1.0048577 0.43982688
O 1.1969807 0.2854053 0.87184876
C -1.2548152 0.36758408 0.77577364
O -2.290795 0.6014403 0.20821972
H -0.76602775 1.1017195 -1.7840757
H 0.4958245 -1.6845831 1.2072388
H 1.5167105 -1.4210035 -0.3289587
H -1.1749489 0.2747345 1.8764827
