10

N 0.72065257 -0.69561766 0.53534265
C -0.74032932 0.82360146 -0.34550271
O 0.07718057 0.98533753 2.00056463
C 0.03724979 0.45085422 0.91982085
C 0.40435428 -0.98395023 -0.78937554
N -0.40943120 -0.17889831 -1.35125351
H 1.34249192 -1.21404744 1.13492862
H -1.81595475 0.83477163 -0.14269982
H 0.84413927 -1.84784034 -1.27646482
H -0.46035318 1.82578916 -0.68536080
