10

N -0.30449888 1.0541298 -0.27480614
C 1.0377201 0.27076674 -0.16082215
O -1.217538 -0.95347714 0.1489573
C -1.3403071 0.2415673 -0.20982242
C 0.7223509 -0.95565933 0.4966449
N 2.1694539 0.5578758 -0.50724846
H -2.3387504 0.62303853 -0.45562905
H 0.6163881 -0.92277753 1.5794373
H -0.36715734 1.9824688 -0.66565686
H 1.0223389 -1.8979329 0.048945636
