11

C 2.60684587 -0.14047001 -0.26145220
N 1.44800619 0.02967488 -0.33600773
C -0.71659769 -1.04477708 -0.13038545
C 0.01803789 0.27028158 -0.35110442
N -0.38677741 1.25555181 0.61652509
H 0.10773846 2.12792969 0.46805000
H -0.42792697 -1.78101062 -0.88521938
H -0.16423612 0.93580020 1.55497157
H -0.21257132 0.66501507 -1.34556479
H -1.79317785 -0.86670619 -0.18900347
H -0.47934062 -1.45128905 0.85919099
