11

C -0.23349364 0.32196242 -0.503959
C 0.5441008 1.6066498 -0.35492232
C 0.21203408 -0.8520799 0.3490384
C -1.175728 0.10021643 -1.3784255
O 1.3505567 -0.9113808 0.7623764
N -0.7442797 -1.7761506 0.5978056
H 1.6095052 1.3711028 -0.42815644
H 0.35942337 2.040106 0.6338381
H 0.2693757 2.3312473 -1.1214768
H -0.49408388 -2.5901937 1.1380517
H -1.6974107 -1.6414796 0.30582976
