10

C 0.0725621 0.178634 -1.0283836
O -1.9900701 0.68979853 0.14196518
C -0.82973963 0.38370988 0.061988547
O 1.4215945 0.49544013 -0.73164815
N -0.17760034 -0.4234137 1.1922407
H 0.63429856 0.0071414355 1.6255339
H 1.9750078 -0.10060157 -1.2478553
H -0.27227134 0.55003816 -1.9963826
H -0.8624395 -0.76763844 1.8585619
H 0.028658098 -1.0131084 0.12397926
