11

O -2.0121686 0.9902348 1.3772578
C -1.0795358 0.6129464 0.7236868
N -0.9758587 -0.5514493 -0.011901711
C 0.40777072 -0.8076615 -0.35614392
C 0.9425744 0.6300469 -0.32523528
O 0.07787975 1.3150824 0.58591676
H -1.6068991 -1.2956072 0.23709358
H 0.9071564 -1.4452114 0.3831152
H 0.5099933 -1.2635424 -1.3448486
H 0.861698 1.1072478 -1.3069894
H 1.96739 0.7079129 0.03804878
