11

O -0.5789333 1.0908482 -0.7486608
C 0.74112475 1.0057956 -0.41233522
N 1.056835 -0.2529591 0.17643198
C -1.5453035 0.6335471 0.005039605
C 0.38652202 -1.3829135 0.18683116
O 1.5402346 1.8527426 -0.64701277
H 2.0018926 -0.24058793 0.5322524
H -1.3505363 0.2049267 0.97391844
H 0.80317414 -2.21257 0.7397767
H -0.5335531 -1.4772246 -0.371643
H -2.5214572 0.7783951 -0.43459833
