11

N 0.88518767 -1.78296205 0.61680609
C -0.04159914 0.33644200 -0.03218246
N 0.17034326 1.72918495 -0.05883536
N -1.08436813 -0.19132124 -0.54155514
C -2.12928782 -0.74356544 -0.87601590
C 1.01186776 -0.51763309 0.52750991
H 1.89271792 0.04989938 0.85628423
H 0.36689078 2.10991711 0.86031588
H -0.60718640 2.22536782 -0.47449697
H -2.18062411 -1.03533038 -1.93106955
H 1.71605791 -2.17999898 1.05323953
