11

C -1.144612 -0.31177828 0.7070817
N -0.057811894 0.6583034 0.63823056
C 1.1048844 0.18414909 -0.082256675
C 0.8333594 -0.17179397 -1.4989784
N 0.5554207 -0.4207628 -2.5925443
H -1.5151299 -0.64014715 -0.2760665
H -1.9752572 0.13099986 1.2648977
H -0.80381507 -1.1953813 1.2584968
H -0.38901687 1.5187789 0.21676731
H 1.8859293 0.949904 -0.059393134
H 1.5060489 -0.7022717 0.42376512
