11

C -0.99560823 -0.55026608 0.74945689
N 0.38007687 -0.07374708 0.82818046
C 0.74699956 0.80360235 -0.24018294
C 0.41711756 -0.36110555 -2.55858682
N 0.60092370 0.21852861 -1.55557613
H -1.21646377 -1.10793120 -0.17171273
H -1.67419701 0.30808971 0.80544813
H -1.19488136 -1.19546203 1.60864431
H 0.11902213 1.70102470 -0.20970609
H 1.78946263 1.10870057 -0.12542093
H 1.02754767 -0.85143395 0.86945603
