11

C -1.0258499 0.24393244 0.2271344
N 0.19955027 0.7933286 0.08141239
C 1.1540685 0.14875737 -0.8137871
C -0.77658534 -1.7215627 0.7227576
N -1.1221802 -1.2414867 1.7518016
H -1.6851923 0.7383351 0.92544234
H 2.078172 0.72939295 -0.8249632
H 0.737887 0.12373071 -1.8252193
H 1.3457843 -0.88157713 -0.48895934
H 0.5937687 1.1594832 0.9348135
H -1.4994228 -0.09233383 -0.69043285
