11

N -0.6956445 0.40550208 1.985689
C 0.021093244 -0.2636478 1.0168568
O 0.7381194 -1.2141944 1.2476025
N -0.12602925 0.2813894 -0.2527238
C 0.5240823 -0.23026067 -1.3666056
N 0.4040847 0.35274163 -2.4875515
H -0.7264849 -0.082315594 2.8682756
H -1.5488822 0.87618226 1.7239932
H -0.62074184 1.15115 -0.39553532
H 1.0965854 -1.1316942 -1.143147
H 0.9338178 -0.14485243 -3.1968536
