11

N -1.34705626 0.07120592 -1.11322757
C 0.03851450 0.04411550 -1.26708574
C -0.69858648 -0.95465898 -0.45158328
O 0.38866765 0.50412779 0.96586386
C -0.46259950 -0.64995439 1.03891207
C 0.74440723 1.02855476 -0.31494432
N 0.46507884 -1.25273443 -1.11998403
H -1.38764590 -0.38834486 1.55600567
H 0.35642525 2.04427226 -0.41723329
H 0.07310285 -1.45014704 1.55441562
H 1.82969175 1.00356370 -0.43113894
