9

N -0.013019572 0.4582627 0.08056798
C -1.1112778 0.48603576 0.79296726
N 1.6915437 -0.4603961 -1.162869
C 0.6216231 -0.62941664 -0.50676495
O -1.326046 1.6907222 1.1440339
H -0.23244843 1.7463331 0.44883433
H 2.0178018 -1.357505 -1.5183793
H 0.11516165 -1.5900149 -0.34251618
H -1.7633386 -0.3440214 1.064126
