9

N 1.2683439 -0.15465266 -1.562081
C 0.22014177 -0.022566397 -0.86247325
N 0.2930623 -0.03758763 0.52170295
C -0.78472596 0.09144375 1.3643124
O -0.7118939 0.07449871 2.5683327
H 1.0445887 -0.122765586 -2.5511825
H -0.800043 0.110174246 -1.2365955
H 1.2089291 -0.1519245 0.93962216
H -1.7384028 0.21338005 0.81836194
