11

O -0.701178 1.266617 -0.3299883
C 0.059647854 0.2304272 0.31317547
O 0.95143855 -1.4115564 -0.681436
C -1.9435146 1.4899627 0.0174708
C -0.29300433 -1.1753027 -0.18400088
C 1.4074678 -0.07670107 -0.33121622
O -1.2465553 -1.8819115 -0.19820522
H 2.2669115 -0.12327625 0.33965585
H 1.6172664 0.5094848 -1.2272443
H -2.1595101 0.7998284 0.8816113
H 0.041030236 0.37242782 1.4001775
