11

O -1.8064959 0.6541383 -1.6423401
C -1.1593782 0.028159568 -0.86693233
O -1.2112935 -1.3181512 -0.6118075
C -0.22101152 -1.2408396 0.45233354
C -0.0445972 0.23527181 0.13715863
C 1.1277369 1.1009469 0.07013784
O 0.09201935 1.298623 1.0283389
H 0.62983143 -1.8926688 0.250292
H -0.66862625 -1.4592624 1.4240108
H 1.190771 1.8541269 -0.71366
H 2.0710435 0.73965573 0.47246832
