10

C 0.0451334 0.50238335 0.8856855
C 1.198708 0.09483387 -0.6294947
N 1.4890276 0.26895612 0.6075294
C -1.0057964 -0.90854555 0.049279276
N -0.6832346 -0.7326506 1.2786554
C -0.30474588 0.26608577 -0.59308213
H -0.1963017 1.4023196 1.4512526
H -1.6164566 -1.715871 -0.35009372
H -0.8230388 0.9482086 -1.2651478
H 1.8967052 -0.12572007 -1.434584
