11

C 0.07750105 0.3025578 1.3270006
C 0.62328076 0.16178024 -1.2097477
O -0.9509392 0.9384603 0.54871416
C -0.25530708 -0.13826227 -0.027265996
O -1.0051411 -1.2733406 -0.25128162
H 1.2902322 -0.68320596 -1.4036022
H 0.00421194 0.32592702 -2.095729
H 1.2208763 1.0575204 -1.0207053
H 0.9605524 0.9134223 1.5129457
H -0.28672397 -0.2710899 2.1800966
H -1.6785437 -1.3337694 0.43957514
