9

N -0.25738597 0.49247304 0.0033135335
C 0.0601283 -0.8244055 -0.16947742
N -0.015730472 -1.1865101 -1.4779239
C -0.16128395 1.1098167 1.2426342
O -0.4472656 2.2644162 1.435834
H 0.20491265 0.41467202 2.0180895
H -0.61773455 1.0567065 -0.766067
H 1.1120989 -1.1312096 -0.7676555
H 0.122260705 -2.195959 -1.5187476
