9

N 1.2658892 -0.15575871 -1.5641688
C 0.21852502 -0.023080666 -0.86273265
N 0.29500234 -0.037922945 0.5225619
C -0.7850899 0.09121422 1.3641696
O -0.7102211 0.07952449 2.5681055
H 1.046089 -0.12402516 -2.552883
H -0.8029663 0.110649325 -1.2327175
H 1.2120438 -0.14959191 0.93928576
H -1.7392719 0.20899135 0.81837887
