10

N 0.64113456 -0.063391834 -1.2587929
C 0.16722205 -0.39005965 -0.13245311
O -0.41959608 0.53279567 0.69938457
N 0.09861854 -1.6167053 0.47741926
C -0.65919805 1.789169 0.22743337
O -1.1462827 2.616554 0.93436754
H 0.74424964 -2.3217494 0.16054909
H 1.0262686 -0.85934705 -1.7549535
H -0.08360417 -1.6125593 1.4699154
H -0.36881238 1.9252939 -0.8228698
