11

C -0.28283703 0.7897863 1.5304823
C 0.6817902 -0.15959585 0.9712998
C 0.6391426 -0.27694649 -0.5605091
O 1.6565311 -0.5277361 -1.1550338
C -0.70195186 -0.11862898 -1.230188
N -1.0507096 1.5436766 1.9465944
H 1.6981872 0.11661078 1.2701511
H -0.62162054 -0.38211715 -2.285718
H -1.4524397 -0.74905753 -0.7404633
H -1.0426239 0.9169684 -1.1319997
H 0.4765315 -1.1529598 1.3853837
