10

N -0.25656815 1.16385802 1.57881527
C 0.19351388 0.06801308 0.90983877
O 0.84346181 -0.82073239 1.41929743
N -0.19442483 0.12892004 -0.45713917
C 0.22844627 -0.83368891 -1.17108054
O -0.05106093 -0.91119322 -2.46825093
H -0.12889662 1.19771462 2.57478676
H 0.83899875 -1.66298616 -0.81875437
H -0.59392163 -0.13591630 -2.68524245
H -0.87954849 1.80601111 1.11772913
