10

N -0.93722224 1.2917585 1.1687707
C 0.11270031 0.52941144 0.7595408
O 1.1922508 0.5051327 1.31256
N -0.23691666 -0.21068922 -0.40358162
C 0.70458317 -0.9148722 -0.8861297
O 0.5284212 -1.6583004 -1.973817
H 1.7134969 -0.9847095 -0.4838141
H -0.8508042 1.7929338 2.0352352
H -0.3923112 -1.5310575 -2.2547057
H -1.8341981 1.1803923 0.72594184
