10

N 1.3157762 0.8412179 -0.70471656
C 0.19744888 -0.9064325 -0.6774254
N -1.2458553 -0.22542629 1.2895151
N 1.201367 -0.31435508 -1.3155766
N 0.464606 1.0788523 0.28613004
C -0.26249477 -0.03201538 0.32968882
H -1.4815503 0.63641804 1.7621566
H 2.0182369 1.512854 -0.9673972
H -2.0718467 -0.69326913 0.94707054
H -0.13568816 -1.897844 -0.94944537
