10

N 0.9718824 1.4229683 0.5538225
C 0.25749722 0.32043374 0.098520175
N 0.24131925 -0.023347637 -1.1831667
N -0.4745513 -1.1427438 -1.1872884
N -0.9342722 -1.5505842 -0.026196277
C -0.48272562 -0.6379076 0.82737136
H 0.5017505 1.9493831 1.2752683
H 1.2530925 2.0252059 -0.20815015
H -0.6446759 -1.6565989 -2.0362957
H -0.6893169 -0.7068088 1.886115
