11

N -0.42401108 -1.6485864 -1.0631207
C -0.23489088 -0.4893211 -0.35774282
C 1.0116608 -0.13274512 0.20092715
N 1.1616023 1.0148109 0.82298535
C 0.06536176 1.7893523 0.8732254
N -1.121195 1.4934453 0.37212595
N -1.2762331 0.32650262 -0.24886061
H 0.180211 -2.4297035 -0.8647294
H -1.3895707 -1.8840442 -1.2385887
H 1.8743445 -0.79163384 0.13197815
H 0.15272036 2.751923 1.3718004
