10

O 0.08644070 0.29281862 -1.70591002
C -0.39880339 0.24743198 -0.39799548
N -0.48521110 -1.07588741 0.20018104
C 0.12951014 -1.22960819 1.37639038
C 0.48144873 0.87684169 0.65868577
N 0.78304182 0.08427771 1.60535065
H 1.00911272 -0.00475722 -1.69649639
H -1.03412410 -1.81196527 -0.21392606
H -1.39031726 0.71223173 -0.42486924
H 0.81890204 1.90861633 0.59858925
