10

O 0.29917583 -1.4802296 0.51162183
C -0.9501586 0.4131993 0.38769686
N 1.4907382 0.32659525 0.73320574
C 0.27927482 -0.16808036 0.8774861
C -0.9473823 -0.24808083 -0.8114836
N 0.094334275 -1.1786509 -0.8942671
H 1.4712273 1.348711 0.7474499
H -1.4787488 1.2942595 0.71274126
H 1.2612486 -0.2745593 -0.55792457
H -1.5197091 -0.03316413 -1.7065263
