10

O 2.36256 -0.3958536 0.27717516
C 1.173291 -0.19530284 0.13649398
N 0.33176157 0.57410735 0.9225796
C -0.974861 0.5498462 0.43456382
C -0.9768364 -0.22517744 -0.6624183
N 0.32826552 -0.68042696 -0.84844464
H 0.6589354 1.060645 1.7384481
H -1.7772297 1.0879116 0.9135236
H -1.7805504 -0.49218994 -1.3288932
H 0.65466374 -1.2835592 -1.5830283
