11

N -2.7444055 -0.098526 -0.2105881
C -0.32005838 -0.861924 -0.91291183
C 0.66270375 0.6160001 1.3012322
C 1.0239793 0.8325994 0.038874134
C -1.6758715 -0.41445345 -0.51789093
O 0.57593954 0.20401077 -1.0870996
H 1.1423937 1.2016673 2.0783079
H 0.041902263 -1.5885053 -0.17441389
H -0.38796496 -1.3585273 -1.8835195
H 1.7684371 1.5723728 -0.24141335
H -0.08705557 -0.10471466 1.6094229
