11

N -1.3842034 -0.08368415 -2.383053
C -0.14355245 0.98324686 0.86093336
C 1.0500655 0.3408497 0.34178513
C -0.50437576 -1.1789109 -0.21041441
C -0.9932275 -0.59146315 -1.4097856
O 0.77729535 -1.053452 0.20635827
H 1.941907 0.46169496 0.9760748
H -0.919793 -2.1521003 0.035336927
H -1.0041726 0.45492834 1.2330846
H 1.305904 0.7554433 -0.6517577
H -0.12584688 2.0634472 1.0014378
