10

N -0.6819696 1.5747224 0.9919055
C -0.07370085 -1.7471452 0.38472566
O -0.77212185 -0.63181406 0.597921
N 0.32093772 0.68017966 -0.9791259
C -0.33225638 0.63595057 0.21573828
O 0.9851621 -1.8455546 -0.18095034
H -0.6230021 -2.5966535 0.81595486
H -0.43286487 2.4815056 0.60680515
H 0.7164564 1.5703998 -1.2388935
H 0.8933593 -0.12159118 -1.2140807
