11

C 0.30859607 0.13806042 0.12970085
C 1.4912063 0.7981916 0.7624945
C 0.30660617 -1.193295 -0.47668937
N -1.6611013 -0.056456845 -0.6448479
N -0.95951355 -1.2414999 -0.8505767
N -0.8564013 0.74266547 0.064274795
H 2.2306674 1.0727719 0.0020200633
H -2.626218 -0.10858177 -0.339177
H 1.1881807 1.6995455 1.2988218
H 1.9813008 0.109174296 1.4574442
H -1.403323 -1.9605756 -1.403465
