11

C -1.1349593 1.1445091 0.6017776
C -0.22039795 0.029450051 0.20782731
C 0.7631583 -0.013605674 -0.7469306
N 1.247719 -1.2756957 -0.65463203
N 0.6158239 -1.9755296 0.28927696
N -0.27108777 -1.1951628 0.8145873
H -2.1807077 0.85685545 0.45800206
H -0.93915355 2.0397186 0.005046552
H -1.0043474 1.3986032 1.6567186
H 1.1414809 0.7119983 -1.4495214
H 1.9824715 -1.721141 -1.1821524
