12

O -0.66726464 -1.4485254 0.8777055
C -0.06055984 -0.22405714 1.1992487
C 0.4465378 0.45367834 -0.07246368
O 1.3283879 -0.42400703 -0.72046334
C -0.7101738 0.7735948 -0.9965628
O -0.72375005 0.3750819 -2.1379733
H -0.031390913 -1.9105041 0.31146055
H 0.7852363 -0.34501934 1.891758
H -0.8171333 0.39900237 1.6902131
H 0.94033957 1.4061904 0.18609129
H 1.0310338 -0.45829448 -1.6452965
H -1.5212626 1.4028597 -0.58371717
