12

O 0.65175349 0.33760751 1.49978266
C -0.47627729 -0.11747552 0.81502331
C -0.22366384 -0.78360389 -0.51076337
O 1.14071721 -0.81663330 -0.87214148
C -0.78582377 0.61725743 -0.46703893
O 0.04825746 1.67153278 -0.80074463
H -0.84678226 -1.61132598 -0.83979072
H 1.41683514 0.12793508 0.94400212
H -1.26722520 -0.46226311 1.47418800
H 0.60015012 1.84565367 -0.02677750
H 1.55813977 -1.56737148 -0.43245579
H -1.81608061 0.75868682 -0.78328331
