9

N 0.23375428 1.397867 0.13794395
C -1.1585184 -0.21908656 -0.26761922
C -0.008374685 -0.8866648 0.12507887
C 0.90383196 0.14674996 0.37436563
N -0.9820136 1.1138028 -0.29994252
H -2.1136916 -0.6412144 -0.557839
H 1.1217474 0.9001054 -0.6386346
H 1.8488624 0.1387955 0.9043264
H 0.1544024 -1.9503547 0.22232045
