10

N -1.328548 0.09654804 -0.10213155
C 0.935031 -0.28365034 -0.47335607
C 0.7080971 -0.13619003 0.8941787
C -0.31009164 -0.11982797 -1.100535
C -0.651446 0.12764293 1.0655308
H -0.6147278 -0.38634133 -2.104716
H 1.4516335 -0.18412207 1.6802794
H 1.874674 -0.48842826 -0.96903676
H -0.89203775 1.0035676 -0.8725429
H -1.1725847 0.37080145 1.9823295
