12

N 1.8058289 0.08290625 -0.95369774
C 1.1934235 0.31186125 0.14947785
C 0.77495956 -0.35231918 -1.8312322
N -0.41251278 -0.4137325 -1.3622913
C -0.2598036 0.042356186 -0.014880478
N -1.2775542 0.90015346 0.5863795
C -1.1117153 -0.44981083 1.095111
H -1.920752 -1.1288838 0.84435517
H -0.6505914 -0.6015511 2.070667
H 1.024705 -0.61967903 -2.8526447
H 1.6868105 0.65359885 1.0538359
H -0.8527977 1.5751007 1.2149196
