12

N 0.99531347 -0.38543668 -1.5991552
C -0.21851836 0.035053402 0.33715266
C 0.92760307 0.39187828 -0.5750006
N -1.089638 1.1739507 0.5943225
C -0.14570367 -1.2169796 -1.4348154
N -0.88586646 -1.0382037 -0.4007032
C 0.1004619 -0.5308851 1.6947722
H 1.1964436 -0.6706105 1.7978991
H -0.35232082 -1.9712071 -2.18786
H -1.6239538 1.004503 1.446074
H -0.5601903 2.0314941 0.7057151
H 1.6563693 1.1764431 -0.3784012
