12

N 0.43515235 -1.5890982 -1.1723157
C 0.12853518 0.29206684 0.059752442
C 1.456195 -1.3524476 -0.21631788
N -0.793641 0.87468344 1.0702028
C -0.09292798 1.7874408 0.05974306
N 1.3199388 -0.32092905 0.53810793
C -0.40480188 -0.6291132 -0.955245
H -1.7640388 0.5710603 1.011376
H 2.2905443 -2.0412548 -0.14680222
H -0.41841447 0.8853659 2.009908
H -1.3002179 -0.48335227 -1.5564436
H -0.85632384 2.0055776 -0.7019658
