10

N -1.4192346 -0.8486264 0.87772435
C 1.01602 0.5108643 0.83250225
O 0.6683657 0.5535433 -1.5941505
C 0.37057137 0.06552307 -0.36922538
C -0.9039943 -0.6282737 -0.26501358
N 1.3642793 0.2998284 1.9878935
H -2.248822 -1.4361314 0.7838398
H -1.3118625 -0.96116495 -1.2254803
H 0.8697972 1.6110519 0.6000786
H 1.5948794 0.8333853 -1.628169
