10

N -1.2279708 -0.70676774 -0.29370436
C -0.6287488 -0.005975372 0.6970164
O -1.1198386 0.20333526 1.7867522
C 0.76622915 0.556101 0.3799298
C 1.3053086 0.19195914 -0.9268719
N 1.6823795 -0.12531869 -1.971341
H -2.1428583 -1.0924138 -0.11494471
H -0.78919244 -0.8799117 -1.1836709
H 0.70994496 1.6458983 0.46122992
H 1.4447469 0.21309385 1.1656046
