9

O 1.5846183 -0.27742058 -1.5372133
C 0.62033993 -0.14798267 -0.6138774
N 0.34802023 0.99429 -0.017138498
N -0.66923356 0.6252842 0.8028749
C -0.93593794 -0.680845 0.65216285
N -0.13254368 -1.2127899 -0.24705037
H 1.9915011 0.59090555 -1.6537497
H -1.0985941 1.3057835 1.4077532
H -1.7081704 -1.197225 1.2062385
