10

N -0.29217044 -0.2532893 1.834342
C -0.14368117 0.10577395 0.57660615
N -1.2365572 -0.29062492 -0.06182323
O 0.9864339 0.101912975 -2.611512
C 0.38318548 0.049420558 -1.5817934
O -0.8437378 -0.5154878 -1.4203746
N 0.7927796 0.52866054 -0.313332
H 0.000727322 0.35326737 2.5894067
H 1.7587016 0.7440139 -0.12833965
H -1.4056814 -0.8236474 1.1168197
