10

N 0.66901547 -0.6952939 1.6372409
C -0.5540559 0.4355202 -1.3512697
N -0.79523426 0.11842829 -0.09036396
O -1.6105964 0.76333946 -1.9622382
C 0.4473101 -0.21641691 0.383819
O 0.70647055 0.3437419 -1.699918
N 1.3981862 -0.08715856 -0.51558816
H 0.04383867 -0.35071284 2.3498418
H 1.6407166 -0.7330091 1.9025617
H -1.9456509 0.4215615 -0.6540856
