11

O -1.7590021 0.077158436 0.49420854
C -0.64682275 0.28017166 1.2612245
C -0.107506774 -1.256146 -0.7136182
C 1.3376637 0.8348333 -0.70232886
O 0.147359 1.2123498 -0.89395964
C 0.06287979 0.049587645 -0.004678142
O 0.447299 -1.4486513 -1.7686421
H -0.7178288 -1.9979197 -0.17851904
H -0.4853377 1.2954631 1.6644992
H -0.4065919 -0.46103874 2.0470786
H 2.127889 1.4141916 -1.2052647
