11

O -0.16785845 1.6034445 -0.3997216
C 0.41730747 -1.6678836 -1.1246673
C -1.0966555 -0.10044483 1.09823
C -0.21581791 0.2535849 -0.06335057
O -0.36130962 -0.6084294 -1.1727039
C 1.0208713 1.0012765 0.12608133
O -1.6649882 -1.1530633 1.2026368
H 1.3150481 1.3511312 1.1124936
H 0.0937398 -2.2193708 -2.0377996
H -1.1573055 0.7090118 1.855027
H 1.8169682 0.830743 -0.5962253
