11

O 1.45812768 0.39464056 -1.81616837
C 0.35671628 0.52713306 -1.34251371
C -0.02652785 -0.09431364 -0.03771940
C 1.02119403 -0.23130135 1.02569283
O 0.71814983 0.00917716 2.17233099
C -1.13236456 -1.10765706 0.03359591
O -1.21686799 0.51978833 0.52288511
H -0.47358488 1.05429293 -1.85031292
H 2.02468881 -0.54832264 0.70697247
H -1.69161126 -1.00236872 -0.91489379
H -1.03791978 0.47893166 1.50013097
