11

O 1.2013253 0.64048946 -1.9631449
C 0.16507304 0.6857178 -1.3570067
C 0.041613806 0.16142005 0.05261699
C 0.8647745 -1.0070013 0.4370071
O 1.1952789 0.28689733 0.87124324
C -1.2521684 0.36437616 0.7768892
O -2.2870748 0.6004739 0.20720567
H -0.7683355 1.1032422 -1.7823788
H 0.49637628 -1.6858616 1.2079809
H 1.5172806 -1.4204026 -0.3282378
H -1.1741438 0.27064872 1.8778253
