11

C -0.85105309 -1.17133339 -0.72134146
C -0.22065568 0.02771171 -0.15983156
C 1.25322183 -0.17023206 0.12654305
O -0.90914716 0.47645953 1.05667506
C -0.85339096 1.32844880 -0.51200686
N -1.34826680 -2.10910060 -1.17284155
H -1.82727171 0.15948207 1.04173181
H 1.62652232 0.69890099 0.67530084
H -0.09995549 2.08684001 -0.23403555
H 1.79742312 -0.25338850 -0.81754719
H 1.43257360 -1.07378906 0.71735344
