9

O 0.5287502 -0.21919012 -1.9266341
C 0.6655267 -0.7824645 0.45682144
N -0.72994566 0.81436735 -0.23147497
N 0.052834272 -0.32426476 1.5429128
N -0.75126797 0.60697913 1.0812776
C 0.16949892 -0.06490721 -0.64498943
H 0.017616885 0.4007518 -2.4629846
H -1.3554538 1.137825 1.6872561
H 1.4024407 -1.5690968 0.4978151
