9

O 0.81652546 -1.6744674 -0.76589566
C 0.26984462 -0.5623918 -0.24824765
N -0.3078935 -0.5128133 0.9402668
N -0.6893986 0.75866884 1.025205
N -0.40728453 1.525634 -0.0047336346
C 0.21348569 0.7073086 -0.84907126
H 0.6970193 -2.388835 -0.12589458
H -1.1722723 1.1096079 1.8366699
H 0.579974 1.0372883 -1.8082987
