9

O 0.87872993 -0.05423197 -1.80677407
C 0.14415061 -1.07387912 0.29977739
N -0.49034304 -0.60866698 1.37025810
N -0.69394675 0.65879844 1.08922501
N -0.24663327 1.08683037 -0.08699059
C 0.29105000 -0.00735992 -0.60348147
H 0.45812043 -2.10242826 0.21597571
H -1.16552754 1.27745780 1.72869350
H 0.82439977 0.82347977 -2.20668337
