11

N 0.68485557 0.81517204 1.58339267
C 0.45591757 1.02588422 0.35291043
C -0.64740731 0.71836011 -0.58327924
C 1.37431238 -0.05692106 0.58051980
C -0.67223969 -0.81089433 -0.20152239
O 0.63188085 -1.20877616 0.28056002
H -1.59488726 1.21746451 -0.37838717
H -0.35270021 0.88049631 -1.62102323
H 2.44035797 -0.16084398 0.45762415
H -0.91220437 -1.44194268 -1.06231720
H -1.40788545 -0.97799884 0.59152178
