11

N 1.479288 -1.7846305 0.9948916
C 0.9947063 -0.7426778 0.6563493
C -0.68706906 0.31342003 -0.9507098
C -0.71148145 -0.33200994 0.4411089
C 1.1311666 0.60131437 0.21243359
O 0.5775891 0.9898021 -0.968991
H -1.4722725 1.056339 -1.1274081
H -0.7017077 -0.43243465 -1.7516738
H -1.1605483 -1.3259124 0.47838458
H -1.1140503 0.30187187 1.2289598
H 1.6643791 1.3549176 0.7866552
