11

N 0.9672287 0.4643872 -2.1408515
C 0.5802394 0.24022561 -0.95750093
C -0.7966512 -0.12029626 -0.6460999
C -1.1487393 -0.3409941 0.62690145
C -0.12549384 -0.20819369 1.64236
N 1.0950928 0.10231543 1.4176172
O 1.4612361 0.33545303 0.10427299
H 1.9588143 0.7018354 -2.165582
H -1.4791005 -0.18937704 -1.4844508
H -2.1600933 -0.6103496 0.9132841
H -0.35253334 -0.375006 2.6900494
