11

N 1.2691848 -1.4474188 -1.0020537
C 0.6933798 -0.6087208 -0.1929349
C -0.4679332 -0.12797557 -0.93521076
C -0.73251855 1.1034889 1.1047555
C -1.1966823 0.76189333 -0.2357813
N 0.29909998 0.664828 1.73163
O 1.0889424 -0.28728783 1.0111986
H -1.2826773 1.8243976 1.7076093
H -2.0983303 1.2402697 -0.6090965
H 2.110448 -1.9770334 -0.798225
H 0.31708676 -1.1464416 -1.7818916
