11

N 0.12744015 -1.6935776 0.9953508
C -0.53609145 -0.31096542 -0.9027012
C 0.105590455 1.9058698 -0.6368722
C -0.57390827 0.94038194 -1.5024029
C 0.0688338 -0.5261868 0.33927393
N 0.68045914 1.7482064 0.51346505
O 0.65767574 0.448045 1.0066627
H 0.16960278 2.9482722 -0.94373125
H -0.29166105 -2.5171516 0.6013384
H -0.98276603 -1.1898766 -1.3705628
H 0.5748247 -1.753017 1.9001797
