11

N -2.04398562 0.14751273 -0.20658191
C -0.05124538 -1.12587675 0.48938212
C 0.30809269 0.98324213 -0.41061400
N 1.42850497 0.34852044 -0.05033937
N 1.38285002 -0.83019980 0.46768837
C -0.77607853 0.07685759 -0.08898648
H -0.24210318 -2.03358527 -0.09489923
H 0.32480148 1.96758934 -0.84687314
H 2.35293324 0.75281477 -0.16338683
H -0.36631719 -1.32633038 1.51960340
H -2.31745290 1.03945507 -0.61499293
