9

O -2.0497067 0.31577954 0.54807705
C 0.27145866 1.1286252 0.5687195
N 0.9925196 -0.6034172 -0.615344
N 1.3817439 0.55792713 -0.046094023
N -0.3298825 -0.7725368 -0.58160675
C -0.76093054 0.19694936 0.19243899
H -2.545486 -0.40000868 0.12509629
H 1.5651377 -1.0815839 -1.2942957
H 1.4751458 0.6582654 1.1030087
