9

O -0.82286316 -0.61234653 1.9718074
C 0.17321047 -1.3154577 -0.15968016
N -0.29411775 0.92368525 0.32883403
N 0.5141399 -0.5014629 -1.1351532
N 0.14917839 0.8463051 -0.9553531
C -0.34019458 -0.30247352 0.76364565
H -1.1112407 0.21069573 2.3970268
H 0.88516605 1.5170189 -1.1601615
H 0.84672153 -0.76596427 -2.0509663
