9

O -1.967819 0.42178723 0.07513634
C -0.6565803 0.13361748 0.029300187
N -0.11018202 -0.89567935 0.6542157
N 1.1738234 -0.782793 0.3303118
N 1.4991728 0.22778244 -0.44712484
C 0.34003225 0.8443737 -0.66288877
H -2.4008894 -0.24001832 0.6300232
H 1.8597343 -1.439327 0.66443294
H 0.26270798 1.7302569 -1.2734063
