10

O -0.9509136 1.8541731 0.99911636
C -0.29507408 1.1053495 0.02640003
C -0.14123085 -0.3391397 0.4664152
O -0.5705365 -0.706724 1.5389532
C 0.5393535 -1.235049 -0.4580147
C 1.105716 -1.9451711 -1.2470667
H -1.1553974 1.2393856 1.7221292
H 0.7073927 1.5063022 -0.18235022
H -0.8446018 1.1111639 -0.9280494
H 1.6052921 -2.5902905 -1.9375331
