12

C 1.37531078 -0.68223170 0.10885800
C 0.13066229 -0.65798459 -0.76071694
N -1.38362270 0.54492533 1.13200341
C -1.11079437 1.17614053 0.06651427
O -0.37009274 0.67401760 -0.93051122
H -0.65892494 -1.28782108 -0.33959112
H -1.96280731 1.12053973 1.73605671
H 1.13215693 -0.38197485 1.13119429
H 0.35358505 -0.98745869 -1.77754252
H 1.78563287 -1.69705600 0.13303553
H -1.42988210 2.18852495 -0.20507417
H 2.13877617 -0.00962112 -0.29422619
