10

O 1.11890154 -0.76802324 0.22156684
C -0.27355628 -0.79182995 -0.21028437
C 0.26236091 0.22919655 0.68238290
O 0.26263965 0.57722383 1.98011251
C -0.38672229 0.33375734 -1.21897030
O 0.15225701 1.27543091 -0.23060393
H -0.83291018 -1.71047206 -0.09910315
H -1.41197269 0.60638588 -1.47826263
H 0.25941826 0.27773405 -2.09751872
H 0.84958397 -0.02940329 2.45068083
