11

O 0.078194246 -1.2947118 -2.1631324
C 0.05105811 0.7822618 -0.8711362
C 0.002081841 -0.6114037 -1.1490871
C -0.25383204 -0.310802 1.1644366
C -0.047065336 0.9721393 0.6143358
N -0.18889573 -1.1901685 0.15830761
H -0.3000264 1.9063269 1.1036345
H 0.21539901 1.5771852 -1.5796502
H -0.20784287 -2.195743 0.25480732
H -0.4218659 -0.5980625 2.1925576
H 1.072795 0.96297824 0.2749267
