11

O -0.21672482 1.36254895 -2.13176213
C -0.50924807 -0.25239397 0.98821004
C -0.08528610 0.69896049 -1.12301904
C 1.04366580 -0.21430221 -0.75270920
C 0.80279925 -0.75031165 0.43989033
N -0.95801114 0.62926982 -0.06233413
H 1.89574458 -0.36971693 -1.40186846
H -1.81811689 1.15203502 -0.04640334
H 1.42554620 -1.45114950 0.98608714
H -1.20959597 -1.07960299 1.16256991
H -0.37077299 0.27466396 1.94133935
