11

O -0.84426594 -0.044671 -2.3943973
C 0.92776364 -0.4606341 0.57273793
C -0.2147957 0.40017092 1.0456201
C 0.8155026 -0.7118363 -0.727997
C -0.41600078 -0.042224105 -1.2578361
N -0.97069883 0.5889209 -0.16901824
H 1.4711088 -1.2962406 -1.3606516
H -1.8209491 1.1230627 -0.24033557
H 1.7079446 -0.80131876 1.2454712
H -0.80079216 -0.1053114 1.8242465
H 0.14518312 1.3500817 1.4621602
