12

O -0.98726547 1.5415123 0.34324366
C 0.098398775 -0.8921212 -0.8314895
C 0.13553168 1.3012977 -0.24286161
O 0.19132802 0.43985468 -1.3241757
C 0.16965915 -0.77064306 0.7171675
O -0.94280523 -0.58834314 1.3445504
H -0.85356504 -1.3540994 -1.1065155
H 0.77145964 0.44351962 0.6259014
H 0.93085873 -1.4691418 -1.2478667
H 0.8177204 2.1467957 -0.3601188
H 0.94898444 -1.3504179 1.2341763
H -1.2803051 0.5517864 0.8479889
