12

O -0.93524214 -0.57111871 -0.30461731
C 0.90587293 -0.56201196 1.21956079
C 0.36058853 -1.08103072 -0.10283689
O 1.43460236 0.52693746 1.31246366
C -0.98679878 0.74611494 -0.83752840
O -0.74809304 1.74683537 0.08332153
H 0.27938594 -2.17228633 -0.06894857
H 0.76902585 -1.20725756 2.10915144
H 0.17390921 1.68901709 0.38260795
H -0.29213716 0.80078514 -1.69547096
H 1.05176088 -0.78169842 -0.90653248
H -2.01287436 0.86571350 -1.19117045
