11

N -1.84292428 0.29529322 -0.83136848
C 0.69721762 0.63532126 -0.58821310
C 0.83821742 -0.73765502 1.10952981
N 1.58311752 0.01534884 0.40004106
N -0.50158228 -0.75677505 0.77018313
C -0.70687872 0.10399973 -0.31070900
H -1.77981547 0.95942774 -1.60224428
H 1.02265443 0.37838353 -1.60321016
H 0.73715230 1.72653760 -0.49760016
H 1.19206963 -1.34445678 1.93707430
H -1.23922831 -1.27542499 1.21651696
