11

N 0.030317297 -1.0999744 0.45454648
C 1.0384325 -0.41588673 1.1074728
C 0.18555832 1.0650488 -0.25880367
N 1.195781 0.80314744 0.7691499
N -1.5629679 -0.5852535 -1.1787074
C -0.5942632 -0.23400685 -0.44623488
H 0.66737014 1.3742225 -1.1939048
H -0.47062168 1.8833715 0.05795232
H -1.8766919 0.1914339 -1.7597761
H -0.2500173 -2.056372 0.59256625
H 1.637103 -0.9257308 1.855739
