11

N -0.8756698 0.9883084 -1.3415097
C -0.28088212 0.23915829 -0.31054375
C 1.0165349 0.30114508 0.1544223
N 1.077977 -0.5602277 1.2071347
N -0.07508983 -1.1759121 1.4518572
C -0.91050977 -0.69823563 0.5399723
H -1.5615404 0.45409545 -1.8599528
H -0.19631131 1.3664403 -1.9860845
H 1.8721724 0.87794083 -0.16570166
H 1.8731214 -0.75875884 1.789462
H -1.9398026 -1.033954 0.520944
