10

N 1.2480336 -0.68729496 -1.3869795
C -1.0616895 -0.2021846 1.1560271
C -0.59808445 1.1287702 0.67754835
C 0.30668208 0.9834203 -0.31176174
C 0.4001059 -0.4717141 -0.4457832
O -1.8247688 -0.56869674 1.9810549
O -0.33609417 -1.2096359 0.3480384
H -1.0087885 2.0193784 1.1381277
H 1.3088019 0.5917306 -1.4250185
H 1.5658017 -1.5837735 -1.7312533
