10

N -0.27250394 1.7264596 0.87910044
C -0.06927305 -1.569615 -0.0065117883
C -0.09625745 0.54909545 0.31344008
C -0.42240041 -0.7216073 0.9957799
C 0.43981394 -0.9203948 -1.2206174
O 0.83860636 -1.2469054 -2.286439
O 0.39001927 0.5298424 -0.90391815
H -0.030042497 2.585409 0.41029313
H -0.6486997 1.7209872 1.8164481
H -0.12926245 -2.653271 0.0024249086
