11

C -0.4407847 -0.16898075 -1.9840008
N 0.68870646 0.06493904 0.20978455
C 0.040646784 -0.8819391 -0.85426134
C -0.13584517 0.4586942 1.3425084
N -0.75866395 0.45239815 -2.9157784
H 0.4410306 1.0811367 2.032682
H -0.47106567 -0.44311616 1.8622321
H 1.2046999 -0.91550773 -0.067722775
H -1.0146482 1.0071198 0.98178595
H -0.70487815 -1.485325 -0.33950594
H 1.150802 0.8305808 -0.26772383
