10

O -1.0029106 -1.0342195 0.36655623
C -0.9805974 0.3420441 0.394537
C 0.46988526 0.62954617 -0.059126794
C 0.7166448 -0.46922174 -0.91562015
N 1.2600671 -0.65682 0.2821872
H -1.2219646 0.78553253 1.3794179
H 0.9085272 -0.85157126 -1.9051577
H 1.0095254 1.573113 -0.07776276
H -1.6422108 0.8127371 -0.35286182
H 0.48303372 -1.1311405 0.88783103
