10

O 1.25193 -1.3893456 0.99049574
C 0.35773537 -0.94998795 0.015807139
C -0.01800106 0.49997738 0.22190748
O 0.42419422 1.1534879 1.1426417
C -0.98103464 1.1516187 -0.76014787
O -1.4523938 0.55387866 -1.6912007
H 1.4052597 -0.6423123 1.5881535
H 0.7839827 -1.048024 -0.99449146
H -0.56991637 -1.5429711 0.019707924
H -1.201756 2.2136784 -0.5328734
