10

O 0.55150937 -1.02635645 -0.29027402
C 0.32025986 -0.68722806 1.05154245
C -0.25213796 1.14062792 -0.14762360
O 0.08017196 0.71656187 1.09477552
C -0.11947527 -0.06176952 -1.06721430
O -0.59025348 2.25739389 -0.40441350
H 1.21211357 -0.92107497 1.63697518
H 0.47597385 0.17800424 -1.95201438
H -0.55885221 -1.20204052 1.46079057
H -1.11930958 -0.39411830 -1.38254387
