10

O 1.2507737 -0.33974436 1.5288956
C 0.27360275 -0.10337442 0.60823774
C -0.99091834 -0.30356216 -1.151389
C -0.67493707 -1.0446652 0.035451792
N -0.27012482 0.8055583 -1.3627218
N 0.5601174 0.90354073 -0.3528923
H 1.1410512 1.721314 -0.24688762
H 1.1766111 -1.2752591 1.7621949
H -1.7259858 -0.57375145 -1.9004855
H -0.7401898 0.20994367 1.079596
