10

O -0.7948755 -1.7337264 -0.74522036
C -0.29885593 -0.586444 -0.23404796
C 0.86414546 0.12518851 -0.42141247
C 0.7113738 1.2354274 0.443611
N -0.43358645 1.2122903 1.1006103
N -1.0395297 0.08446931 0.670007
H -0.15349004 -2.0974932 -1.3663931
H 1.6887759 -0.11794152 -1.0753231
H 1.4029986 2.0506868 0.60412544
H -1.9469563 -0.17245735 1.0240434
