11

O 2.2799237 1.5655771 1.0831085
C -0.75149333 -0.22484449 0.43384117
N 2.1891532 -0.1030972 0.50893795
C -0.7326994 -0.4076307 -1.073058
C 1.3209141 0.7567575 0.7904625
O 0.025195872 0.9139129 0.8639458
H -0.37303752 -1.1160574 0.946191
H 0.26949084 -0.6750251 -1.4254283
H -1.048287 0.50800604 -1.5771788
H -1.4222987 -1.2118574 -1.3463633
H -1.7568617 -0.0057412405 0.7955414
