11

O -1.69448880 0.27699667 2.22201703
C 0.95218324 -0.00862943 -1.46896448
C 0.15678391 -0.72555681 0.80887683
N 0.18197066 0.09839493 -0.42717329
C -1.00551553 0.22318230 1.23522438
C -0.84298181 0.90889383 -0.01120903
H -0.10268431 -1.76593791 0.59832401
H 1.70075984 -0.79078253 -1.48593241
H 0.82762084 0.68607906 -2.28993443
H 1.09155801 -0.64680479 1.36974732
H -1.26520650 1.74416451 -0.55097584
