11

O -1.52141434 -0.00333238 -2.08546357
C -1.48687110 -0.84940310 -1.23280673
O -0.25216977 -1.75188199 0.57998949
C -0.54881654 -0.75114274 -0.02654788
C -0.03611259 0.62994541 0.38795142
C 1.42006077 0.73559142 0.73611318
O -0.84490744 1.52285131 0.47188599
H -2.06111245 -1.79495937 -1.27211668
H 1.68765748 -0.04646105 1.45257675
H 1.61743080 1.72373334 1.15305445
H 2.02625509 0.58505856 -0.16463647
