10

N -1.2278737 -0.707365 -0.29524776
C -0.6283874 -0.006924477 0.69489217
O -1.1196402 0.20123938 1.7835073
C 0.76500356 0.55782926 0.38148147
C 1.3081294 0.19212323 -0.92576593
N 1.6845404 -0.12649904 -1.9697361
H -2.141262 -1.0958532 -0.115599684
H -0.78701794 -0.8809672 -1.185431
H 0.70478624 1.6480689 0.46141666
H 1.441722 0.21834826 1.1704826
