10

N -1.9823114 -0.12950723 -0.38657913
C -0.24578866 -0.24366508 -0.92505336
O 2.0221548 0.055879205 -0.31444347
C 0.8746358 0.018314175 0.07674307
C -1.4887038 0.93895334 -0.6299511
N 0.48870206 0.1046675 1.3718587
H 1.199902 0.30342 2.0594525
H -0.48078987 0.18574904 1.6304518
H 0.039489724 0.08760274 -1.9212071
H -0.42729107 -1.3214136 -0.9612721
