11

C 2.0894434 -1.193825 1.006886
C -0.34334287 -0.31946453 0.2032432
C 1.1183977 -0.05930657 -0.001805467
O 1.6763978 0.86595404 -0.4720666
C -1.2134842 0.8228716 -0.31045067
N 2.0201771 -1.6728865 -0.08327927
H -1.0742723 0.96936566 -1.3850541
H -2.2676609 0.5955169 -0.12597987
H -0.9677625 1.7608787 0.19488443
H -0.48208624 -0.50004256 1.2749807
H -0.55580753 -1.2690617 -0.30135825
