11

C 1.2985535 0.6361104 0.5730347
C 0.101580955 -0.2906678 0.41229185
C -0.7462319 0.05125757 -0.7840475
O -0.54262114 0.9493254 -1.5582254
C -1.9300911 -0.8322891 -0.9738431
N -2.846031 -1.5191711 -1.1136051
H 1.9457737 0.5987681 -0.30723485
H 1.8836844 0.33993688 1.4481862
H 0.9767019 1.6728154 0.70514107
H -0.55233604 -0.26724383 1.2939432
H 0.41101664 -1.3388422 0.30435875
