11

O -0.3803455 1.5212361 -0.24549066
C 0.6586813 0.78617096 -0.5875164
N 0.9577268 0.09856345 0.8091986
C -0.35344115 -0.20332284 0.80971354
C -0.68938875 -0.93262136 -0.4595451
O 0.29357693 -0.3770921 -1.3187598
H -1.7119612 -0.7380337 -0.7933259
H 1.5361161 1.2506018 -1.0554553
H -0.51505494 -2.0086458 -0.3511742
H 1.188733 0.81261694 1.4944439
H -0.98464257 -0.20947316 1.6979116
