11

O -2.0105066 0.9911733 1.3813032
C -1.0783736 0.6138547 0.7257549
N -0.9769758 -0.54848486 -0.013201048
C 0.40663388 -0.80695504 -0.3595546
C 0.9422928 0.6287562 -0.3261819
O 0.08254378 1.3097751 0.58983004
H -1.6070273 -1.295027 0.24038267
H 0.9058828 -1.445688 0.37975806
H 0.5057545 -1.2617062 -1.347014
H 0.861025 1.1097232 -1.305973
H 1.9687505 0.7045782 0.034895543
