11

C -2.16892446 1.63855300 -0.48823054
C -0.06048331 0.17310531 -0.18439575
C 0.46743144 0.22137447 1.22744164
O 0.88514511 0.24668889 -1.21952311
C 0.14851841 -0.96570422 -1.08137678
N -1.21416287 0.96114791 -0.38720667
H -0.29616037 -0.12473376 1.92897736
H 0.74513673 1.24578792 1.48956286
H -0.57389612 -1.15717781 -1.87252324
H 0.71741722 -1.82148005 -0.72225468
H 1.34997881 -0.41756143 1.30952881
