11

C -0.8213629 0.7467228 -0.8348376
C 0.5009849 0.6250679 -0.12855998
O 0.49312383 0.68497115 1.2890762
C 0.8679711 -0.54389495 0.6907236
C -0.055226736 -1.6557422 0.8532689
N -0.7735674 -2.5544853 0.9641829
H -1.1532288 1.7896881 -0.83274525
H -0.72634023 0.4210364 -1.8754753
H -1.5870229 0.14016014 -0.34516427
H 1.338059 1.161388 -0.58119404
H 1.9166104 -0.814912 0.8007248
