11

C 0.23423974 1.978769 0.20569621
C 0.32959044 -0.6676962 0.08256818
O -0.17756723 -0.16370665 1.1873927
C 0.45170096 1.0716529 1.2438765
C -0.5908633 -1.3229733 -0.8695242
N 0.052674614 2.7299669 -0.6667193
H -1.4455146 -1.7406331 -0.32664728
H -0.97419906 -0.5684511 -1.5696778
H 1.4006962 -0.58157694 -0.056484267
H 0.80610824 1.3641846 2.2214117
H -0.08686607 -2.099536 -1.4518921
