9

N -1.0694091 -0.20600368 1.400241
C -2.02909 -0.5229862 -0.008169611
O 0.44029588 0.026926585 -2.1469493
C -2.1944969 -0.4824603 1.7602818
C -0.82426894 -0.21833824 -0.22013466
C 0.4323586 0.069295175 -0.937235
N 1.4806229 0.35844496 -0.13385366
H 1.4018053 0.4096913 0.86557496
H 2.3621824 0.5654304 -0.5797555
