10

O -1.6187158 -0.603782 -1.0726814
C -0.56132734 0.26003203 -0.78974557
C 0.4318101 -0.42684144 0.12815605
O 1.483547 0.54563504 0.6217985
C 0.6894081 0.55130726 1.6145468
O 0.6701992 -1.598123 0.1305335
H 1.1096003 1.0567458 2.503402
H 0.007072994 0.54386 -1.6927134
H -0.96571094 1.1670463 -0.334274
H -1.2458837 -1.4958801 -1.1090224
