10

O -0.56508964 -1.881067 -0.78187895
C 0.21107484 -0.9910735 -0.04571198
C -0.31598023 0.4176014 -0.14652373
O -1.2915031 0.6891029 -0.8124588
C 0.40218225 1.527366 0.6064136
O 1.3768696 1.3198543 1.2801695
H -1.262849 -1.3579986 -1.203675
H 0.24085036 -1.2685295 1.0191411
H 1.2570984 -0.98501635 -0.39082026
H -0.052653357 2.5297604 0.47534463
