9

O -1.7023851 -1.1297563 0.85522145
C -0.656952 -0.47648004 0.3574393
N 0.5962169 -0.7610284 0.47772038
C 1.2134255 0.2609036 -0.2435508
C 0.28155717 1.0884672 -0.7465169
O -0.95718026 0.60857767 -0.3545961
H -1.3441793 -1.8856442 1.3429058
H 0.28130284 1.9826782 -1.3476088
H 2.2881944 0.31228238 -0.34101442
