9

N -0.88831747 -0.57211363 -1.2241575
C 0.23277745 -0.14502004 -0.5535356
C -0.05063558 0.36930302 0.7884542
N 0.96007365 0.8048489 1.4856795
N 1.8371308 1.1746644 2.0835297
O 1.3441842 -0.15803906 -1.044927
H -0.7037467 -1.0906788 -2.070726
H -1.7033249 -0.8479408 -0.70082724
H -1.0281414 0.46497583 1.2365106
