10

O -0.03429431 0.70969254 -1.1700338
C -0.81172657 -0.16499715 0.810331
O -2.1613295 1.239174 -0.646204
C 1.0220934 -0.051656023 -0.58657265
C -1.140208 0.67110366 -0.37142912
C 0.44385463 -0.58954877 0.6893662
H 1.0012947 -1.2201326 1.374292
H 1.8841786 0.6039722 -0.4169157
H 1.3229245 -0.8436875 -1.2822425
H -1.5267875 -0.35392055 1.5994087
