11

C 0.87169635 -0.82977974 1.7349328
C 0.48163554 0.069686286 0.68894446
C -0.46904626 0.20285036 -1.4360199
O 1.3541775 0.9932037 0.39780837
C -0.80786395 -0.11490639 -0.060007863
N 1.0988429 -1.5777074 2.5896182
H -1.5796876 0.5294294 0.3903471
H 0.08837948 -0.5287445 -2.014535
H -1.1100727 -1.1629567 0.11035164
H 0.9892284 1.3766448 -0.4484359
H -0.9172898 1.0422802 -1.9530038
