11

C -0.40770397 0.9162707 -1.1534877
C -0.074605234 -0.33266053 -0.37594745
O -0.059226654 -1.4370751 -0.8770643
C 0.27760366 -0.1857334 1.0937314
O 0.65574193 -1.4033111 1.6525836
H 0.51996845 1.3357474 -1.560884
H -0.8663924 1.6830662 -0.5195345
H -1.0682433 0.67700285 -1.9898307
H -0.6022843 0.23825797 1.6063576
H 1.0804073 0.5634396 1.1842165
H 0.5447346 -2.0550046 0.9398596
