12

N 0.71660763 -0.9245443 -1.1078006
C -0.28218296 0.22283594 0.9500144
C -1.4023145 -1.9050064 1.6233559
N 1.3410765 1.4434091 -0.35504484
C 0.40821186 0.35737532 -0.36278743
N -0.92521495 -0.8312108 1.2698559
C -0.15312369 -0.13936435 -1.5900058
H 2.1226475 1.2397115 0.2605301
H -0.8107956 -0.079745196 -2.4470835
H 1.7105769 1.609941 -1.2835379
H -0.262804 1.0610057 1.6390637
H -2.4626844 -2.0544076 1.4034398
