12

N 1.0352156 0.15428509 1.485137
C -0.045376312 -0.59393543 -0.1982565
C -0.09443691 2.464589 0.59433246
N -0.5735422 1.7062217 -0.23481198
C -0.52948743 0.57550424 -0.8656442
N 0.36804992 -1.6220536 -0.99552906
C 0.15545338 -0.71133745 1.2527852
H -0.85506344 0.5136709 -1.9004736
H 0.8371387 -1.4168595 -1.8661327
H 0.668119 -2.4722567 -0.54581463
H -0.2630991 -1.5080082 1.892479
H -0.7029712 2.9101799 1.3819289
