12

N 0.859118 -1.7388964 0.5644463
C 0.26733568 -0.5449141 0.16910683
C 0.9298878 0.39342862 -0.6272856
N 0.34800223 1.5068746 -1.0631552
C -0.91986054 1.6971861 -0.69906175
N -1.6528977 0.880813 0.0576226
C -1.0553681 -0.22736284 0.48419094
H 1.8664682 -1.7338117 0.6122279
H 0.4453438 -2.1756842 1.3764981
H 1.9660125 0.23453091 -0.92185354
H -1.4027666 2.6050167 -1.0547907
H -1.6512749 -0.89718056 1.1020542
