11

O -0.17997873 -0.95642756 -1.24559722
C -1.17842546 0.51558549 0.49910413
O -2.33166609 0.34198883 0.72637748
C 0.48071134 -1.66650720 0.29260323
C 0.02250029 -0.29441955 0.03119959
C 0.76143241 1.03336975 0.13778763
O -0.45049357 1.66705388 0.62434120
H -0.42088265 -2.22641673 0.59412078
H 0.65201690 -0.94913468 -1.74111782
H 1.08594052 1.48499525 -0.80276923
H 1.55884451 1.04991266 0.88395026
