11

O -0.815309 2.1583555 -0.7030423
C -0.42237127 1.0845034 -0.3107159
C 0.34509873 0.0003011116 -1.0779297
C 0.54282725 -1.0863601 -0.057017893
C -0.013997032 -0.69411874 1.0921086
N -0.58635575 0.580387 0.96572924
H 1.2818738 0.41946572 -1.4620905
H -0.2411198 -0.31340575 -1.9491155
H 1.0515782 -2.0232677 -0.2306912
H -0.070282884 -1.2090408 2.0419447
H -1.0719421 1.0831807 1.6908208
