11

N 0.13070035 -0.9682054 1.8241739
C -0.2985087 -0.25296763 -1.4120121
C 0.5600149 -0.53127694 0.64462334
N -0.09260555 -1.0401965 -0.42366448
C 0.3227025 1.7212615 -0.11614479
N 0.03774333 1.09706 -1.2576551
H -0.6899937 -1.5593966 1.9295297
H 0.34788996 1.5424045 -2.1179523
H 0.62604517 -0.700541 2.657545
H -0.60639566 -0.60521364 -2.391624
H -0.3375926 1.2970718 0.66318125
