11

N -0.2487269 -0.4507126 -0.9597791
C -1.3014157 0.21316122 -0.5349306
C 1.2228723 1.309384 0.98402643
N 1.6832722 0.46103433 0.090044625
C 1.0015274 -0.40434304 -0.83336693
N -2.0553317 -0.42058355 0.36599076
H -1.8377897 -1.3309531 0.7630285
H 1.6529753 -0.99700624 -1.471384
H -2.924284 0.0073661907 0.64315575
H 2.692058 0.39972454 -0.008410111
H 0.11484279 1.2129283 0.9616247
