11

N -0.35935247 0.49543732 1.962034
C -0.1577694 0.18097499 0.6147782
C 0.52512026 -0.868385 0.0545537
N 0.3486963 -0.71150416 -1.3131443
C -0.4193163 0.38676587 -1.4955093
N -0.73896295 0.95483804 -0.35882366
H -0.7556961 1.4216393 2.045864
H 0.473721 0.41307926 2.5301883
H 1.0846212 -1.6905774 0.46971348
H 0.7143923 -1.3134141 -2.0313063
H -0.7154536 0.7311458 -2.4783485
