10

O 0.5080789 -0.98800755 -1.4151938
C 0.014871826 -0.41601798 -0.27344787
C 1.3871143 -0.85443544 -0.2580263
O -0.6164742 1.5074673 1.0162472
C -0.927383 0.6176198 0.030481454
O -1.119911 -0.77700377 0.41900077
H 2.1976902 -0.13928051 -0.3825974
H -1.6527826 0.94719553 -0.71476126
H -1.4292407 1.9000567 1.3536353
H 1.6380363 -1.797594 0.224662
