11

N -0.54913156 -0.15686435 2.41986799
C -0.02755416 -0.41909035 1.29260912
O 1.00121603 -0.81616382 -1.18936601
N -0.34739824 0.36354832 0.19327811
C 0.13480126 0.21664551 -1.09527143
N -0.13843841 0.90797481 -2.12445047
H -0.21765751 -0.81376462 3.12133022
H -1.00057082 1.11263424 0.37045672
H -0.80007845 1.65524794 -1.93446644
H 0.67609477 -1.22219279 1.06760893
H 1.26871728 -0.82797475 -2.12159617
