10

N -1.2300428 -0.706446 -0.29499903
C -0.62704027 -0.007256861 0.6952678
O -1.1185224 0.19891521 1.7841562
C 0.7658805 0.5561928 0.3805885
C 1.3093657 0.1952598 -0.92703515
N 1.6843168 -0.12119791 -1.9723771
H -2.1447864 -1.0911472 -0.11329281
H -0.78924364 -0.8853573 -1.1828254
H 0.70650876 1.6456867 0.46292996
H 1.4435637 0.21535075 1.167587
