10

N -1.10718213 1.12851616 0.03110131
C 0.27637397 -0.33018818 1.47170238
O 1.01257469 -1.26084395 1.70168784
C -0.08425812 0.14881287 0.12791405
C 0.63733265 -0.29197631 -0.89456601
N 1.40612428 -0.53490277 -1.80941672
H -2.01821809 0.75335084 0.27522264
H 1.25281361 -1.41565135 -2.28982102
H -1.16114341 1.54581030 -0.88925537
H -0.21441751 0.25707238 2.27543087
