9

O -1.44692825 -1.75926082 0.27594902
C 0.61781609 -0.25264103 -0.33382262
C 0.73405956 1.01918313 0.34847699
C 0.85176122 2.06446773 0.93269104
C -0.60919349 -0.97878028 -0.37586074
N -0.44098588 -0.38806868 -1.47077658
H -2.21179073 -1.93390634 -0.29615254
H 0.94611661 2.99785670 1.44437807
H 1.55914495 -0.76885046 -0.52488261
