9

O -1.3225523 -0.6581853 0.88364536
C -0.59812975 0.29953608 0.15662737
C 0.8612437 0.19384734 0.33831182
C 2.044518 0.0750041 0.5073856
C -0.92900497 0.23288633 -1.2940667
N -1.2027496 0.14802785 -2.4119804
H -1.0101657 -1.5381484 0.63385874
H -0.9407326 1.2699465 0.5281947
H 3.0975733 -0.022914553 0.65802354
