14

C -1.67218366 -0.69803136 0.52261308
N -1.76462621 0.46493694 -0.39003516
C -0.35353201 0.11502238 -0.04973547
O -0.67151665 -0.07480960 1.35157073
N 0.76421385 0.86548178 -0.40610544
C 2.03139832 0.34757605 0.09872542
N -0.63522653 -1.33813332 -0.31136355
H 1.96489175 0.25510018 1.18456603
H -2.51900156 -1.20945449 0.98443894
H -2.02770878 1.29715837 0.14265192
H -1.00400948 -1.44282377 -1.26075880
H 0.77558285 0.99918420 -1.41053885
H 2.28829225 -0.63789794 -0.31141471
H 2.82342553 1.05669071 -0.14461428
