10

O 0.79388726 1.9340494 -0.7591286
C 0.3552162 0.8901304 -0.37680876
C -0.92873925 0.44224742 0.32949477
N -0.5080297 -0.9551393 0.093143135
C 0.83411324 -0.5663427 -0.3895389
H -0.95471984 0.7644452 1.3792996
H -1.8709791 0.72969836 -0.14994131
H -0.4949705 -1.5291667 0.92737705
H 1.6628848 -0.7324383 0.31241125
H 1.111337 -0.9774835 -1.3663082
