10

O -1.6859531 -1.6075585 -0.016644588
C 0.5946712 -0.8526438 0.5251204
C -0.7495678 -0.83907914 0.0074555203
N 0.80466664 0.65708846 -0.033067223
C -0.57968736 0.5955092 -0.5534398
H -0.6577161 0.7540062 -1.6322714
H 1.0858141 1.3687962 0.62651044
H 1.4058974 -0.25541216 -0.39536306
H 0.9979764 -1.127762 1.4914861
H -1.2161014 1.3070554 -0.019786263
