11

N 0.09618102 -1.3929999 1.0364165
C 0.4490583 0.8176711 0.034350954
O 1.2962965 -0.99488616 -0.9372775
C -1.0268155 0.6636583 -0.2932606
C 0.24735911 -1.0532002 -0.23887393
O -0.98822266 -0.6303947 -0.8406631
H -1.6290358 0.70867956 0.6198014
H 1.0987023 1.1752061 -0.75631666
H 1.0299813 -1.6696011 1.3548379
H 0.7854389 0.97288483 1.051324
H -1.3589435 1.4029819 -1.0303389
