11

N 0.29620504 -2.254344 0.055289164
C 0.04212213 -0.92095774 0.17162178
N -0.59036237 1.0084604 0.67459005
N 0.4033713 2.1381924 -1.247317
C 0.12848303 1.1596315 -0.4961458
N -0.70530343 -0.34094834 1.0317754
O 0.60175925 -0.10891742 -0.7617812
H -0.011462602 2.9979894 -0.90446436
H -1.379476 1.5926667 0.89325404
H 1.219008 -2.4901843 -0.27808037
H -0.0043443823 -2.7815876 0.8612583
