11

N 1.71331616 0.85341454 -1.62068068
C 0.86002792 0.57926411 -0.72953316
N -1.25458328 -1.76900036 0.68521535
N 0.21160812 1.30917887 0.24872553
C -0.57292511 -0.62383416 0.40246661
N -0.76183777 0.53956507 0.89818260
O 0.38721918 -0.70506759 -0.55428225
H -0.71054194 -2.61761564 0.63839329
H 1.96184843 1.83674589 -1.60737126
H -0.00245971 2.28484259 0.13012316
H -1.83167163 -1.68749331 1.50876114
