10

O -1.9870353 -0.08997193 0.080017865
C 0.8361545 -0.39164114 -0.75823516
C 0.3091662 0.3704253 0.41722646
C -1.1354997 0.7237005 0.35339713
N 0.6415042 -1.0467367 0.5149345
H -0.23377593 -1.5687506 0.48886862
H 0.12959166 -0.5943573 -1.5615262
H 0.96064407 1.0558628 0.9526232
H -1.3910165 1.780018 0.56792367
H 1.8702667 -0.23854887 -1.0552303
