9

O 2.14249083 1.10127408 -1.64212077
C 1.11628389 0.63207124 -1.34223334
N 0.00721404 0.15490163 -1.21737148
C -0.07594776 -0.18867002 1.21926771
C -0.77491902 -0.30581607 -0.12178414
O 1.03390169 0.25202317 1.34818542
H -1.06047957 -1.35716786 -0.26455596
H -0.67063577 -0.54255201 2.08359623
H -1.71790812 0.25393569 -0.06298370
