11

C -0.822782 0.74794424 -0.8335642
C 0.50033504 0.6252575 -0.12916614
O 0.4952512 0.6848652 1.2888538
C 0.8689619 -0.54422027 0.6900822
C -0.055782974 -1.6557884 0.8524166
N -0.77067095 -2.555604 0.9631015
H -1.1530951 1.7914662 -0.83326495
H -0.7274993 0.42087558 -1.8741313
H -1.5881091 0.14179784 -0.3416609
H 1.3366163 1.1612128 -0.5824843
H 1.9167752 -0.8178063 0.79981774
