11

C -0.8215581 0.7461838 -0.83433205
C 0.4996293 0.62525 -0.12856741
O 0.49372306 0.685323 1.2896875
C 0.868118 -0.54217744 0.690252
C -0.054610822 -1.6562946 0.85499865
N -0.77232194 -2.5552182 0.96356326
H -1.1544893 1.7882895 -0.8308497
H -0.72327274 0.42249554 -1.8761991
H -1.5873259 0.1370532 -0.34648195
H 1.3355662 1.1631179 -0.5813484
H 1.9165425 -0.8140226 0.7992774
