11

C -0.882688 -0.70041203 -0.6800238
C 1.090701 1.4619918 -0.43352678
O 0.9691302 -0.72419685 0.9326722
C 0.5232823 0.94422686 0.7832486
C -0.3691329 -0.22903235 0.65399086
N 1.544332 2.0003397 -1.3530093
H -1.1797268 -1.7517476 -0.6207808
H -1.047859 -0.40992337 1.4914361
H -0.11870405 -0.5852227 -1.4528513
H -1.7584897 -0.10737927 -0.96224725
H 1.2291548 0.101355776 1.6410913
