11

C 0.47545749 0.64709054 -0.08668427
C -0.81233029 0.72691478 -0.85942649
O 0.38222871 0.65065534 1.33982131
C -0.68441683 -2.59371779 0.82436513
C 0.84554142 -0.51945058 0.72463446
N 0.00338455 -1.64227289 0.79005419
H -1.19360311 1.75133920 -0.84536503
H -0.64205114 0.43764757 -1.90104987
H 1.30535920 1.24758980 -0.46352167
H -1.56827859 0.06579150 -0.42830129
H 1.88870880 -0.77158709 0.90547359
