9

O -0.3313749 2.1235988 1.9688789
C -0.71561444 -0.96823853 -0.27874106
N 0.76779836 0.9359899 0.23039201
C 0.56555885 -0.21588868 -0.582313
C 0.13739741 1.4771105 1.1142595
O -1.5007178 -0.6312655 0.5658848
H 1.4044322 -0.91637844 -0.4684128
H 0.54971874 0.06265197 -1.6453408
H -0.87719846 -1.8675798 -0.90460753
