11

N -0.6988025 1.3868543 1.4436399
C 1.0220904 0.48101902 -0.20201378
C -0.2664932 0.5193023 0.6318778
C 0.40870884 -0.72474885 -0.91959757
C -0.79651964 -0.7012033 -0.08087709
O 0.20519821 -1.7122539 0.07479993
H -1.8151606 -1.0226841 -0.26482075
H -1.6463319 1.1595341 1.7498529
H 0.5162004 -1.0511482 -1.9472404
H 1.9551204 0.2846824 0.3313415
H 1.1159898 1.3806463 -0.81696236
