11

N 0.46086887 0.34047884 -2.925237
C 0.35781926 0.6296516 -1.8137696
C 0.20882626 0.9679701 -0.39341992
C -0.5970651 -0.0870506 0.3436069
C 0.06022008 -1.1839784 1.0535821
O -0.47445604 -0.062240053 1.7497886
H -0.281451 1.9433284 -0.3097962
H 1.1976163 1.0591784 0.06706947
H -1.6125411 -0.23443325 -0.024894206
H -0.46686417 -2.1240885 1.2078497
H 1.1470265 -1.2488165 1.0452197
