11

N -0.47829452 2.1411161 0.778225
C -1.0570068 -0.14686985 -0.45781505
C 1.1160473 -0.120833874 0.46914846
C -0.52226806 1.0404766 0.29014
C 0.21284021 -0.9665965 -0.32786083
O 1.2984735 -0.31166065 -0.9451974
H -1.9048713 -0.5755169 0.084161624
H 0.5724334 1.419953 0.85115427
H 1.9061401 -0.5356932 1.0990846
H 0.20932928 -2.0525692 -0.36179772
H -1.3528231 0.108194485 -1.479243
