10

C 0.25879493 -0.62425184 -1.436511
N 0.1140928 -0.06728223 -0.10613981
N -1.0265387 0.40778258 0.36309528
C -0.6628074 0.78417677 1.5783261
N 0.6381225 0.54415333 1.8287152
N 1.1154566 -0.0014157152 0.7455898
H -0.38321078 -1.5005513 -1.5362502
H 1.3049428 -0.9042372 -1.5532156
H -0.021080384 0.12631893 -2.1765716
H -1.3377726 1.2353066 2.2929618
