10

C 0.52868160 -1.49630288 0.04626816
N -0.03237011 -0.16258176 -0.04270186
N -1.33747059 1.38084389 -0.59323941
C -0.31912005 1.84755884 0.15477774
N 0.52448968 0.89756810 0.52091775
N -1.13551341 0.10039086 -0.70842623
H -0.16192149 -2.16924628 -0.45939641
H 1.50409400 -1.51309975 -0.44234604
H -0.20493555 2.88722571 0.42847355
H 0.63406570 -1.77235681 1.09567272
