10

C -0.4241575 1.8126085 -0.27167696
N -0.16582264 0.92986083 0.6781851
N 0.025220208 -0.16404521 -0.04191894
C 0.36406437 -1.4483197 0.53888255
N -0.10266152 0.01716854 -1.3380966
N -0.39171088 1.274861 -1.5062478
H 0.40630615 -2.168214 -0.2768686
H -0.64053416 2.8539982 -0.07791596
H -0.40356687 -1.7302054 1.2598848
H 1.3328627 -1.3777125 1.0357726
