12

N -0.82339100 -2.02085697 2.17325811
C -0.51576514 -1.10893376 1.53443411
C -0.12545819 0.04202158 0.71995712
C 1.32348102 0.16083438 0.32655503
N 1.39324261 0.72315798 -0.83534763
C 0.19389742 0.97250216 -1.40351948
N -0.75839042 0.01353269 -0.63227698
H -0.48337409 0.97213746 1.18956674
H 0.10857742 0.80981108 -2.47808820
H 2.15496001 0.04746686 1.00957666
H -0.74470981 -0.95538850 -0.98782237
H -1.72307005 0.34371520 -0.61629330
