12

N -0.5771484 -2.9664547 0.59323925
C -0.38991314 -1.8266255 0.60136753
C -0.15133677 -0.38319966 0.6050612
C 0.08820584 1.606805 -0.6030099
N -0.7331354 0.28519583 -0.59689957
C 1.2747383 0.089878 0.50107104
N 1.2941339 1.2111883 -0.14187478
H 2.093472 -0.2979286 1.0926868
H -0.56518507 -0.30872104 -1.4242226
H -1.7362262 0.4441653 -0.50513726
H -0.6571213 0.07807676 1.4682869
H 0.05951625 2.0676203 -1.5905685
