11

C -0.59845364 -0.2967515 -0.1418632
C 0.31981888 -1.2184737 0.47174782
C -0.82937086 1.7391074 -1.2717237
C -0.050283387 0.6680917 -1.0348308
O 0.65938604 -2.0985818 -0.30733794
N 0.6730159 -1.1597222 1.7922964
H 0.98097736 0.6211871 -1.3907673
H 1.0711607 -2.0058682 2.1735265
H 0.09412413 -0.6088119 2.4073184
H -1.8571821 1.7365668 -0.9143428
H -0.46319288 2.6232567 -1.7840229
