10

O 0.47324497 1.1852134 -2.472191
C 0.04490745 -0.10474187 1.631707
O 0.6373586 0.9518038 1.6853305
C 0.40870276 0.9101619 -1.2965736
C -0.24483278 -0.3571026 -0.86149347
C -0.4030689 -0.79337186 0.39617586
H 0.8171017 1.5638944 -0.51357883
H -0.61659193 -0.95941293 -1.6886271
H -0.21055764 -0.6514562 2.560297
H -0.9062643 -1.7449882 0.5589537
