10

O -0.04559686 2.23283864 -1.65914820
C 0.13494604 1.44034778 -0.76401816
O 0.98145593 0.11844392 1.78191209
C 0.38393003 -0.84323027 1.34796722
C -0.31667237 -0.92020897 0.04234023
C -0.42166068 0.06108418 -0.86493199
H 0.32439596 -1.77864446 1.93779291
H -0.78103677 -1.88122456 -0.17234708
H 0.70212457 1.69229221 0.14266217
H -0.96188582 -0.12169803 -1.79222919
