10

O 2.03238419 1.58307500 1.10250202
C -0.77173207 -1.36166885 -0.55391134
C 0.47152669 0.70281235 -0.43196253
C 1.03052583 1.73469798 0.42858090
N -0.21211906 -0.22657932 0.16843192
H -0.34430136 -2.29523398 -0.17564835
H -0.50442044 -1.23073063 -1.60244360
H -1.86095148 -1.39132837 -0.44337862
H -0.37175404 -0.23734955 1.17621337
H 0.53084176 2.72230533 0.33161622
