12

O 1.94760808 0.30651862 -0.62365767
C -2.07680280 0.42781558 -0.45037392
C 1.40612191 -0.57899468 0.36468522
C -0.02153441 -0.26529688 0.65786507
N -0.78653174 0.14835548 -0.35130954
H -0.22823975 0.26706287 -1.19808101
H -2.46208223 0.71885918 -1.41558878
H 1.88197100 1.19820596 -0.26387016
H 1.99279562 -0.53407623 1.29365698
H -2.70684109 0.33448727 0.42324018
H -0.49079129 -0.43734215 1.61764075
H 1.54432682 -1.58559508 -0.05420714
