12

O -0.541779 0.61650324 -1.697477
C 0.18808943 1.1739241 -0.6325327
C 0.36174196 0.16296205 0.48716596
C -0.71413046 -0.7891345 0.83436096
N 0.42169943 -1.2215879 0.015661595
H -0.23306617 -0.30096713 -1.7611201
H -0.36222127 2.0511189 -0.27254468
H 1.182574 1.5146813 -0.9615125
H 1.0455786 0.45580927 1.281958
H -1.6588186 -0.7367043 0.30279896
H -0.7734904 -1.1478767 1.8596425
H 1.0838226 -1.7787284 0.543599
