9

O -0.56863546 -0.12889169 2.0364878
C 0.552188 -0.14659746 -0.024776144
N -0.84363705 1.9463546 -0.17062056
O -0.9138374 -0.18350697 -1.4377375
C -0.34780395 0.915517 -0.53258246
C 0.3424645 -0.5408158 1.3482478
H 1.2240837 -0.71101546 -0.65828127
H -0.5820656 0.041375153 -2.319285
H 1.1372435 -1.1924194 1.7585477
