9

O -1.47784259 -0.59784353 -1.31547595
C 0.32160697 0.34442482 0.01025782
N 1.81227023 -1.73999719 -0.58768329
O 0.33336254 0.61917844 1.38586988
C -1.11570300 0.20121012 -0.49956814
C 1.15110127 -0.82274354 -0.35782617
H -1.79805218 0.92988756 -0.01608923
H 0.02240300 -0.16101592 1.86019710
H 0.75085356 1.22689945 -0.47968208
