12

N -0.6802282 1.7805226 0.6700361
C -0.44675073 -1.0241235 -0.1936783
C 0.5418083 0.12014892 -0.3694799
N 0.12001804 -2.1336203 0.23149826
C 0.1002228 0.7945894 0.92259264
N -0.034227163 0.96848977 -1.3971897
C -0.7050565 1.8382963 -0.7420739
H -1.3067007 2.6057165 -1.2178998
H 0.19246598 0.3284952 1.9007283
H 1.6298543 -0.024596907 -0.51029223
H 1.1027249 -2.3953903 0.16664222
H -0.51413107 -2.8585274 0.5391162
