10

O -1.6944454 -1.0341191 1.3738405
C 0.2723982 -0.8889805 -0.2189555
C -0.8924189 -0.397635 0.7130766
N 0.58347046 0.5725733 -0.46978188
C -0.551961 0.92059875 0.42096058
H -0.0140320435 -1.4005535 -1.1396614
H 1.112477 -1.3929781 0.26258653
H 0.49561334 0.84217286 -1.4521846
H 1.519047 0.844962 -0.1561763
H -0.8301487 1.9339591 0.6662954
