11

N -0.98212034 -1.3770493 -1.6183949
C -0.44468752 -0.7878425 -0.6534208
C 0.31379852 -0.027696641 1.0346135
C -0.59891003 0.55064046 -0.0036304116
C 0.78861445 1.1306933 0.24131873
O 0.49381068 -1.2402302 0.27332214
H 1.5812033 0.98789763 -0.49075836
H 0.7764034 2.0908701 0.74809027
H -1.5133988 1.1209798 0.07680286
H 0.2200836 -0.119904436 2.1077528
H -0.63479745 -2.3283582 -1.7156961
