10

N -0.16503408 -0.36140017 0.61144812
C 0.16006518 0.62031567 1.50209103
O 0.97997831 1.48744022 1.30267548
C 0.39003563 -0.36820156 -0.72466612
C -0.63093854 -0.08458180 -1.74449441
N -1.44477534 0.10932947 -2.53914782
H -0.39831972 0.52315414 2.44984875
H -0.90947321 -1.00156895 0.84204198
H 0.85844517 -1.33123267 -0.95223857
H 1.16001676 0.40674571 -0.74755857
