10

O -1.1620394 -1.0349894 -0.67441386
C -0.90744585 0.29538766 0.34169152
C 0.09886741 -1.0175236 -0.34911054
O -0.40241864 -0.40320182 1.3439622
C 0.37560382 0.47686166 -0.49128017
O 1.4331867 1.0696958 0.15561232
H 0.72919196 -1.9081417 -0.31649554
H 0.30613467 0.8311021 -1.5224695
H 1.3335898 0.7763203 1.0797446
H -1.8046703 0.91448903 0.4327589
