10

O 1.2527364 -1.387572 0.988189
C 0.3554676 -0.9467461 0.0144667635
C -0.017765805 0.49915698 0.22145638
O 0.42079866 1.1496776 1.1474022
C -0.9776091 1.1510907 -0.75901395
O -1.4509171 0.55526006 -1.690956
H 1.4051554 -0.64199173 1.583515
H 0.77996045 -1.0512819 -0.9959911
H -0.57067937 -1.5421239 0.022940764
H -1.1971471 2.2145305 -0.53200936
