10

O -0.71033186 -1.6416878 -0.35417312
C -0.113051675 -0.44117743 -0.65389055
C -0.5640997 0.8482775 0.07960764
O -0.038556665 0.29497123 1.3224325
C 0.9722263 0.14765024 0.28728372
O 0.7003242 1.4628702 -0.23888403
H 0.06644133 -0.3693481 -1.7261153
H -0.83815515 -1.6435856 0.60965633
H 1.9917781 -0.115958564 0.5673584
H -1.4665747 1.457988 0.10672448
