10

O -0.27994456 -1.77366378 0.31764199
C 0.12783540 -0.67629447 -0.40159052
C 0.83269189 0.50805036 0.31315416
O -0.39845210 0.77100715 1.04120422
C -0.71966066 0.62182804 -0.37354933
O 0.44155096 1.37963883 -0.76755353
H 1.79133160 0.66539855 0.80678232
H 0.53243894 -0.98822962 -1.36389792
H -0.62372925 -1.42915359 1.15932745
H -1.70406219 0.92141873 -0.73151915
