12

N -1.18670401 -0.74144779 -0.38721104
C -0.72414436 0.63806083 -0.22489930
N 1.38949682 1.54142384 0.63182687
C 0.55958998 0.52937163 0.21841565
O 0.01599702 -2.79627018 -0.19342794
C 0.14323676 -1.60502314 -0.06224298
N 1.07881138 -0.74658887 0.28537001
H -1.42167223 1.45734239 -0.18848146
H -1.90943214 -1.03916398 0.27223195
H 2.36321538 1.28418456 0.67556992
H 1.19351123 2.46801896 0.29773844
H -1.50190686 -0.98990782 -1.32489037
