12

N -0.8173581 -1.1973919 0.07824215
C 0.3163851 0.733494 -0.054476995
N 0.70145994 2.0494895 -0.11593511
C -0.9317529 0.22423565 -0.25227186
O 1.1136482 -2.498401 0.6120274
C 0.76521325 -1.3701309 0.37105307
N 1.3035598 -0.1729541 0.27107927
H -1.8933246 0.7042413 -0.31605345
H 0.13067518 2.6753523 -0.6554761
H -1.3149694 -1.4899316 0.9224219
H 1.6976559 2.184472 -0.19067906
H -1.0711923 -1.8424753 -0.6699312
