11

N -0.27237747 2.65518924 -1.30481822
C 1.18601115 -0.88810977 0.54722036
C -0.55447781 1.57918503 -0.99211522
C -0.88418034 0.21502236 -0.56034830
C -0.08332889 -0.17573987 0.66834193
O -0.01033330 -1.56229340 0.92351047
H -0.67033286 -0.49022853 -1.37142344
H 1.56422592 -1.14109114 -0.44198815
H -1.95651305 0.15594334 -0.34701356
H -0.25595966 0.44176264 1.54938565
H 1.93726657 -0.78963981 1.32924829
