10

N 1.0500381 -1.3291249 0.53390473
C -0.8931691 0.019118333 0.12537464
C -0.14102553 0.92010564 -0.50953823
C 0.86754733 1.4384998 -1.2225511
C -0.21576977 -1.1833078 0.61884534
H -0.88148123 -1.9387957 1.0594026
H -1.9548877 0.1677461 0.28147903
H -0.55735207 1.8762965 -1.0698369
H 1.3933424 2.2636752 -0.7233513
H 1.3327577 -2.2342136 0.9062712
