11

N -0.63330704 1.120508 -0.70521855
C -1.1258436 -0.106942736 -0.2150518
C -0.020704828 -0.7436295 0.32664233
N 0.5262899 -1.8264779 0.891503
C 0.68023545 1.2120098 -0.45949206
N 1.0660105 0.116447166 0.1688642
H -1.189834 1.8357728 -1.1478971
H 1.6232957 -0.8350209 0.75608087
H -2.162248 -0.3827244 -0.32172197
H 1.2919401 2.0614185 -0.7244367
H -0.05583398 -2.4513607 1.4307278
