11

N 0.57144463 -1.3588289 1.681999
C 0.3026037 -0.6023836 0.6663889
C -0.97858316 0.97368795 -0.40324286
N 0.017909816 0.6464079 -1.2044377
C 0.83506113 -0.30923444 -0.6183091
N -0.8344087 0.24363853 0.71750814
H 0.16134721 1.0402628 -2.1210527
H 1.7036351 -0.6965973 -1.1237959
H -1.7585484 1.6882229 -0.61403733
H -1.4364921 0.2662202 1.5235242
H 1.4160308 -1.8913958 1.495455
