10

N 2.19497576 0.76892712 -2.03889388
C -0.67967121 0.45195157 0.88214331
C -0.35589206 -0.71237677 -0.10374447
C 1.11363327 -0.65160569 -0.19571946
C 1.62992228 0.14633335 -1.22695416
H -0.68169821 -1.64675032 0.36044840
H -1.74465133 0.40561582 1.12427822
H -0.11095117 0.35757135 1.81002719
H -0.90106299 -0.54176125 -1.04076364
H -0.46460428 1.42209475 0.42917867
