10

N 0.57909024 -2.3043203 1.9801561
C -0.03676264 -1.5402807 1.3452362
C -0.89335066 -0.6239266 0.7181332
C -0.47972408 -0.1695399 -0.6213081
C 0.35478732 1.1083295 -0.30020276
H -1.3443625 0.13412839 -1.2170132
H 1.2850696 0.8522683 0.21128143
H -0.21138103 1.8083975 0.318406
H 0.5976102 1.6015989 -1.2450209
H 0.14902355 -0.86665493 -1.189668
