10

C -0.93257016 0.3802362 2.3677266
C -0.47581902 0.21016474 1.2668841
C 0.06785761 0.0063860263 -0.033628628
C 1.3403398 0.119077966 -0.5503158
N 1.3051845 -0.19683298 -1.869711
N 0.08969676 -0.49909338 -2.2008972
N -0.66448313 -0.3813959 -1.1110722
H -1.3319123 0.5313376 3.3488195
H 2.255054 0.40435055 -0.05395738
H -1.653348 -0.5742308 -1.1638482
