10

C -1.2784609 0.15902577 0.2519933
C 0.6753491 -0.5457096 -1.0203238
C 0.16499826 0.15730037 0.116538666
C -2.4718 0.17510603 0.39741328
N 2.762273 -0.37968278 -0.12824325
N 0.98878896 0.6809051 0.9517437
N 1.9906832 -0.8015746 -0.88826567
H -3.5332239 0.18856998 0.5280049
H 0.5224001 1.1229914 1.7439497
H 0.17899217 -0.7569317 -1.9528108
