10

N 1.0929337 0.33162937 0.4006425
C -0.14132242 -0.07819063 -0.081400625
C -1.2522682 0.6020451 0.30750063
O -0.60430497 1.555312 1.1390288
C 0.7163499 1.325285 1.1313217
N -0.24453582 -1.2262257 -0.9924165
H 0.08305089 -2.1008117 -0.57525396
H -1.2516979 -1.2976729 -1.1797658
H 1.34645 1.9745092 1.7240224
H 0.2553448 -1.0858799 -1.8736792
