10

O -0.003904887 1.0209186 -0.758906
C 0.31971693 0.5431628 0.52190894
C -0.54808 -1.2083945 1.7416741
O -0.8277937 -0.14335434 1.0314913
C 0.265776 0.21077265 -1.7985663
O 0.7689765 -0.8746313 -1.718902
H 1.1568091 -0.15218794 0.51061964
H -0.037635893 0.7102666 -2.7265654
H 0.47779962 1.4238704 1.1461321
H -1.5716635 -1.5304229 2.0511136
