10

O 1.74697452 -0.71294372 -0.86644103
C -0.77357299 -0.85163168 1.86288646
C -0.19692870 0.73680009 0.29661146
O -1.08135439 -0.30926773 0.71048816
C 0.96161257 -0.12126678 -1.55257797
O -0.04820331 0.64211650 -1.09708304
H 0.74548346 0.61753899 0.82764772
H 0.95493251 -0.10241271 -2.64908844
H -1.60799881 -1.58445373 1.98071547
H -0.70094519 1.68552063 0.48684101
