11

N 1.8487448 -0.11340437 -1.4369667
C 0.59973866 -0.13204977 -0.8699126
N -0.5472299 -0.24309061 -1.4423122
N -1.5006175 -0.070332445 -0.43161464
C -0.8357472 0.09458477 0.6565722
N -1.2991217 0.19572636 1.9439731
O 0.5119012 0.0784603 0.47162047
H 2.545558 -0.6529557 -0.93951523
H 1.8055251 -0.35316092 -2.4171128
H -0.82541037 0.8921598 2.503212
H -2.303341 0.30406255 1.962057
