11

N 1.20822786 -0.13033709 -0.65877181
C -1.07729444 -0.01512210 -0.73658657
N 0.08294599 -0.04152623 -1.47538848
N -2.26270126 -0.07233120 -1.15422222
C 0.71829997 0.00324396 0.51472416
N 1.38997456 -0.00104578 1.70126465
O -0.63323195 0.10628816 0.57881136
H 2.38733232 0.07821197 1.58046768
H 0.11384605 -0.49000869 -2.37493051
H 1.00228435 0.59958740 2.41426752
H -2.92968337 -0.03696044 -0.38963518
