11

O -1.55527863 -0.29521919 -1.24849479
C -0.56409386 -0.09834977 -0.40428971
C 0.38728098 -1.10415655 0.13968013
N 0.65641695 -0.05551240 1.18545607
C 1.31185969 1.04990776 0.52821408
C -0.23697531 0.93187178 0.49975203
H -0.12457590 -1.98616782 0.54295874
H 1.27832598 -1.38789134 -0.43125215
H -2.06924309 0.52014156 -1.35690710
H 1.80093019 0.76606072 -0.42353665
H -0.88464715 1.65931527 0.96841947
