11

O -1.7214147 0.6946133 -0.786784
C 1.5970218 0.36051244 0.64949554
C -0.61599874 0.23178129 -0.2411384
N 0.7613859 -0.8094821 0.77736807
C 0.097684115 -1.0351121 -0.55467063
C 0.08064103 0.51328737 0.95096135
H 1.8715024 0.590426 -0.39806768
H 0.80430573 -1.0793656 -1.3908272
H -0.28926048 0.93942475 1.8728517
H -0.57354987 -1.9023029 -0.55449986
H -2.0123172 1.4962178 -0.32468897
