11

C -1.3059642 -0.78897643 0.6820149
N -0.12905331 -0.05318621 0.26461
C 0.39688018 0.10232941 -0.9730572
C 1.487227 0.9051159 -0.76834226
N 1.5693102 1.1916084 0.5569033
N 0.59325176 0.6124177 1.1726894
H -1.363784 -0.7087848 1.7678175
H -2.2026935 -0.3556726 0.2332665
H -1.2181993 -1.8389034 0.39528492
H -0.03264147 -0.35430405 -1.8519049
H 2.2056665 1.2883558 -1.4792825
