11

O -1.5694357 0.06010078 1.8026025
C -0.7025484 0.014444823 0.7834904
N 0.3988946 0.7088231 0.6635763
C 0.922257 0.29807663 -0.5425063
O 2.0807765 0.8159785 -0.99583477
C 0.14128554 -0.6387988 -1.1450241
N -0.9284887 -0.80911595 -0.2497558
H -1.2159319 0.704155 2.4312925
H 2.367547 1.4548748 -0.3291453
H 0.22420365 -1.1833369 -2.0710373
H -1.7185595 -1.4252023 -0.34765866
