11

C 0.26135987 -0.31515396 0.05198918
C -0.944984 -0.042581562 -0.6679326
C 1.4256792 -1.0159042 -0.30678347
N -1.7125248 0.85293907 0.072062075
C -1.006599 1.1188763 1.1059356
O 0.20289442 0.47071677 1.1758574
H 0.58245873 0.28766412 -0.9481171
H -1.233942 1.7835654 1.9265193
H 1.3732954 -1.749201 -1.0994744
H -1.2787402 -0.51639736 -1.5801847
H 2.3311028 -0.8745234 0.27012858
