11

N 1.10210418 -0.23246518 0.14182614
C 1.09662664 -1.63458157 0.10917593
C 0.04995564 0.47441602 0.03208939
O -1.54689828 -1.27786093 -0.24821229
C -1.33817081 -0.09148169 -0.18226412
O 1.49780920 -2.28058370 -0.82288908
N 0.09939142 1.83441884 0.18029999
H 0.79675017 -2.08219425 1.07459281
H 1.02473332 2.23914988 0.20208363
H -2.15880319 0.65159649 -0.25192812
H -0.62349819 2.39958595 -0.23477428
