11

C -2.03129392 -0.04048140 -1.26568395
C -1.18221233 1.01931269 -0.95316590
O -0.08830872 0.77845475 -0.22285328
C 0.31776829 -0.33251383 0.25112815
C 1.57153112 -0.31796219 1.05758763
N -2.69780397 -0.97543917 -1.48910516
H -1.30536307 2.04936816 -1.23835231
H -0.27154290 -1.22325632 0.05300720
H 1.37899604 -0.65027416 2.08541624
H 1.98908693 0.69117020 1.09026547
H 2.31914257 -0.99837838 0.63175597
