10

O 0.46723711 0.2758691 1.6179909
C 0.3165663 -0.6174316 -0.71546155
C 0.44650465 1.4234576 1.061408
O -0.499406 -0.68830264 -1.8436668
C -0.44390106 0.01532215 0.43624473
O -1.6227628 -0.09988129 0.61173356
H 1.2131006 -0.04712289 -0.9710032
H 0.8946835 2.2131228 1.69126
H -1.3993902 -0.859908 -1.5308585
H 0.62736773 -1.6151254 -0.3576471
