12

C 0.8209747 -1.1377327 1.0749247
C -0.96717507 1.8949536 -1.0520743
O -0.351534 0.8209426 -0.33462572
N 1.333506 -2.1584904 1.6263092
C -0.43296155 -0.36165968 -0.9457776
N 0.18394944 -1.2851427 -0.1638641
H -0.20522791 2.6534996 -1.2511474
H 0.8112001 -0.114783734 1.4600234
H 1.7539722 -1.9109327 2.5165167
H -1.7533542 2.318651 -0.42165586
H -1.3863825 1.5126967 -1.987257
H 0.19303262 -2.2320015 -0.521372
