10

N -0.82407606 0.8742638 1.3546476
C -0.17120309 0.17808351 0.35092688
C 0.35156426 -1.0663412 0.21195076
N 0.98712415 -1.1481822 -1.0270817
C 0.810599 0.008186954 -1.5530071
O 0.11346368 0.88132834 -0.7740905
H -1.503668 1.5354714 1.0057728
H -1.2311643 0.26849136 2.0531468
H 0.33204305 -1.9025822 0.8942865
H 1.1353172 0.3712799 -2.5165522
