10

N 1.3500726 -0.58097947 -0.5723483
C -0.7626766 0.37726873 -0.07069132
C 0.48341 -0.3012533 0.33569974
N -1.621569 0.623068 0.9762238
C 2.0470128 -0.9453218 -1.4801877
O -0.99306655 0.7189473 -1.2161434
H -2.5436778 0.930269 0.71057975
H -1.5448545 0.08673602 1.8245999
H 2.8709838 -0.353787 -1.8714877
H 0.7143656 -0.5549474 1.3637553
