11

N -1.1544027 0.25936133 1.5719641
C -0.44111863 -0.40605086 0.5703554
O 0.57078886 1.5163394 -0.67571324
C 0.25381437 0.20442975 -0.37260652
C 0.9370312 0.45335767 -1.6016824
O -0.6028709 -1.7545832 0.66542655
H -1.0250522 1.2585461 1.5260398
H 0.38367885 0.4624832 -2.539909
H -0.9409765 -0.09808617 2.4946966
H 0.010354134 -2.1744628 0.04857886
H 2.0087535 0.2786656 -1.6871505
