10

N -1.16986259 0.02738852 0.27911933
C 0.18096729 -0.02507583 -0.01793321
C -1.58005319 0.89900426 -0.57871896
O -0.63310646 1.38927636 -1.36865202
C 1.13224591 -0.90999785 0.70776385
N 0.55426499 0.76026719 -0.98574730
H 1.13617438 -0.66615098 1.77397446
H 0.82465008 -1.95573722 0.60793013
H -2.58589059 1.27130298 -0.72579074
H 2.14061042 -0.79027765 0.30805457
