10

N -0.65593004 -1.2196683 1.1890213
C -0.18078852 -0.30707985 0.2577326
C -0.78316706 0.7293822 -0.37614527
O 0.13963093 1.2664865 -1.2490364
C 1.2305522 0.51722515 -1.0812125
N 1.1209002 -0.42655388 -0.20903827
H -1.3145754 -0.8325552 1.8497467
H 0.10555453 -1.6871418 1.6636167
H -1.7569599 1.1922789 -0.36043325
H 2.0947833 0.76762605 -1.6842515
