11

N 1.6812912 0.6875712 0.14779413
C -0.49882254 0.02433336 -0.94742256
C 0.45106515 0.14992937 0.21956266
N -0.09201417 -0.28822756 1.3147309
C -1.3670433 -0.701334 0.8902512
N -1.6848127 -0.5732363 -0.3454043
H 2.1340616 0.82172793 -0.7405651
H 2.2693932 0.61652464 0.9644241
H -2.0481834 -1.1222752 1.6244115
H -0.10631012 -0.615533 -1.7451059
H -0.73862505 1.0005196 -1.3826767
