12

N -0.28229076 -0.22058831 0.32281598
C -1.4090186 0.6014427 0.62530154
O 1.4874527 -1.3968877 -0.5508906
N 1.5868694 0.8737385 -0.5411406
C 0.8609767 -0.24304079 -0.2543636
C -1.371937 -0.886029 0.95086694
H -1.9130626 -1.4899378 0.21077666
H 2.182453 0.81158215 -1.3478613
H 1.0775459 1.742706 -0.4450416
H -1.9016465 1.0103554 -0.26257426
H -1.2896178 1.3115638 1.4428822
H 0.9722757 -2.114905 -0.15077122
