12

N -2.07371370 0.55324428 0.09881593
C -0.74910941 0.22285507 0.12598549
N 0.24366926 0.94567797 0.43876247
C 1.39284321 0.01514931 0.42407520
O 2.51534877 0.53229169 -0.21879195
C 0.93322014 -1.34926067 -0.10755125
N -0.36595077 -1.12959514 -0.19527670
H -2.24565774 1.54413401 0.19312591
H -2.64554741 0.08338440 -0.58424313
H 1.70144103 -0.14370788 1.46873094
H 2.32662761 0.56013019 -1.16546366
H -1.03317142 -1.83430296 -0.47816923
