12

N -2.1305995 0.5640928 -0.07914066
C -0.7848655 0.19941959 -0.04099497
N 0.15298778 0.8195231 0.63659
C 1.3075858 0.15922807 0.3071659
O 2.494427 0.53882605 0.8292534
C 1.0851779 -0.87057465 -0.5540053
N -0.30028337 -0.8359594 -0.7642873
H -2.2967663 1.3162674 0.57872313
H -2.7546465 -0.206925 0.11765222
H 2.3066106 1.27946 1.4204806
H 1.7333101 -1.6111941 -0.992459
H -0.81293845 -1.3521636 -1.458978
