10

O -1.60326877 0.02343962 -0.24160522
C -0.09417454 1.94010338 1.13158131
C 0.50256288 0.78459419 0.55394112
O -0.48340850 -2.10730215 -1.31574667
C -0.29757013 -0.11056507 -0.10172891
C 0.25682130 -1.33808078 -0.74383738
H 0.72272776 2.54848848 1.56453249
H 1.56895273 0.51394189 0.56536365
H -1.91711893 -0.74879073 -0.74458352
H 1.34447618 -1.50582890 -0.66791694
