10

O -1.1460745 -1.9441962 -1.1455172
C 0.60790926 2.0007427 0.82511896
C 0.6909906 0.60157907 0.579347
O -1.3178058 0.6462326 -0.6893217
C -0.28741127 0.006179466 -0.16875407
C -0.26177952 -1.4529889 -0.47958952
H -1.851052 -0.012923533 -1.1678512
H 1.5099765 2.2862246 1.3992995
H 0.5781911 -2.0447123 -0.07808079
H 1.4770559 -0.08613759 0.9253493
