10

O -0.41109124 -1.5646517 -0.2955945
C -1.8825011 1.5531822 -0.82946044
C -1.1106414 0.6845075 -0.51589096
O 1.838829 -1.2318931 0.6482027
C -0.1513918 -0.30849648 -0.1433995
C 1.1187886 -0.040467553 0.4366983
H -2.5669549 2.3244307 -1.1059363
H 1.0996962 -0.37485966 1.5448327
H 1.5771494 0.940385 0.2815448
H 0.48811692 -1.9821368 -0.020996762
