11

C -1.5051384 0.93710554 0.23850828
C -0.20998453 0.36352855 -0.2905648
C 0.46288127 -0.659637 0.5023803
C 1.5670727 -0.99775016 -0.21237855
N 2.2744968 -0.85596424 -1.2121838
O 0.25525662 0.7433808 -1.3603501
H 0.14668268 -1.0626956 1.4499902
H -1.4135423 2.0254505 0.28826448
H -1.7744688 0.5448103 1.2225212
H -2.3010852 0.70282066 -0.4744799
H 2.4978292 -1.7410489 -0.15170719
