11

C 0.4852655 -0.5762054 -1.3288106
C 0.91604954 -0.71533954 0.070361555
C -0.08558245 0.124543816 0.35779184
C -0.7270278 0.7925834 1.5057985
N 0.7947187 -0.9867855 -2.461744
O -0.56356925 0.31666481 -0.94425917
H 1.689919 -1.25305 0.5924559
H -1.7822461 0.5054922 1.5654924
H -0.67764604 1.8804528 1.3858778
H -0.2250626 0.5109723 2.432781
H 0.17518166 -0.59932876 -3.1757452
