10

O 1.27992912 -1.66304327 -0.25879529
C 0.57519414 -1.11603264 -1.27291890
C 0.17090114 -0.03810750 0.57161015
N 1.02173110 -0.98624597 0.89118420
O -1.09921346 1.72247044 1.07460496
C -0.15463793 -0.07709107 -0.82533668
C -0.27862854 0.86056553 1.65319515
H 0.70969634 -1.59413346 -2.23206254
H -0.82215254 0.57232140 -1.36767732
H -1.40281964 2.31929654 1.76619634
