11

O -0.5309224 -0.59885013 1.0885993
C 0.84557277 -0.6528498 1.0116408
C 1.3542556 -0.060744915 -0.06272108
C -0.98366123 0.08515419 -0.026116936
C 0.21121183 0.49620312 -0.8656236
N -2.1964571 0.3112203 -0.27186778
H 2.4011235 0.0078885965 -0.31735906
H 0.13202174 0.07044804 -1.8711681
H -2.7963471 -0.073388495 0.45308027
H 1.3214821 -1.1704321 1.8342589
H 0.2417204 1.5853512 -0.9727229
