10

O 1.4477086 -1.2705361 0.8695638
C 0.5480219 -0.4528086 0.32149622
C 0.88370264 0.89377695 0.08654614
N 0.0059527275 1.7115848 -0.45500174
N -1.2052696 1.256335 -0.779037
C -1.4662877 -0.014731028 -0.5352162
N -0.6403041 -0.91819596 0.009399683
H 1.0283221 -2.1419475 0.95241475
H 1.8577604 1.2974222 0.33581558
H -2.459607 -0.36089972 -0.80598134
