12

O 1.41819275 1.70083561 -0.68536679
C 0.95215347 0.39936747 -0.98389573
C 0.09413821 -0.15495395 0.11244691
O -1.78841151 -1.13653507 1.07717844
C -1.15846447 -0.56639289 -0.01900857
O 0.75144760 -0.18736870 1.30558919
H 0.37262028 0.46109430 -1.90800487
H 1.84692341 1.65107193 0.17998067
H 0.11249596 -0.48722141 1.97083924
H -2.70832403 -0.84869580 1.07163720
H -1.68928490 -0.54403524 -0.96440977
H 1.79651324 -0.28716610 -1.15698570
