11

C 0.74177957 -0.15369166 -0.14923766
N 0.9403931 0.64522386 0.7957269
C -0.099167086 1.5659269 1.2180301
O -0.44696885 -0.16397019 -0.8902237
C -0.9252091 -1.2240406 -1.5397894
O -0.14054523 -2.262332 -1.2630477
H -0.29710156 1.3780999 2.278565
H 1.4961218 -0.8542834 -0.494713
H -0.5202617 -3.0094068 -1.7464039
H 0.29325035 2.583292 1.1290089
H -1.0422912 1.4951816 0.66208446
