10

O 2.11689 -0.5810139 -0.3926829
C -0.50325733 -0.83807313 0.15389879
C -0.82340884 0.6857669 0.13047074
N 0.60628104 0.9350421 -0.21637195
C 0.8874356 -0.33826235 -0.17420943
H -1.1135689 1.1107777 1.0955372
H -1.520226 1.005081 -0.6496447
H 1.9213763 0.7895643 -0.4374862
H -0.97307295 -1.4343096 -0.6311862
H -0.5984491 -1.3345729 1.1216747
