11

C -0.18123311 0.56859617 -1.03654475
C -0.08852407 -0.25084130 0.15625953
C 0.78190078 0.08030286 1.33952366
N -0.91934191 0.26763382 -2.03471262
N -0.80889319 -1.33979311 0.17674757
N -1.43343629 -2.28023373 0.19024206
H 0.68322359 -0.67157150 2.12608339
H -0.83327047 0.98062354 -2.75802777
H 0.50912785 1.05278611 1.76924702
H 0.45026165 1.46500382 -0.97979541
H 1.84018488 0.12749306 1.05097730
