12

O 0.4022421 1.1748172 -2.1694872
C 0.7545923 1.2897104 -0.8141852
C 0.21009631 0.1684706 0.018538969
N -0.7519257 -0.61212176 -0.4315554
N -0.9801182 -1.4177451 0.6246347
C -0.16360812 -1.0930574 1.6427269
N 0.60562015 -0.08637361 1.2972542
H -0.48795938 0.8017004 -2.2036304
H 0.40405795 2.2387757 -0.3771561
H 1.8480188 1.2897259 -0.74860644
H -1.6746899 -2.1448421 0.56837964
H -0.16632627 -1.6090602 2.5930862
