17

C 2.4386954 -0.06994546 -0.03559099
N 0.2467829 1.2031703 0.593077
C -1.1229368 -1.8932973 -0.8437306
O 1.1767437 -0.64777035 -0.35576087
N -1.0617696 -0.4995954 -0.44432622
C 0.11036286 0.09204916 -0.016003126
C -0.94748586 1.9591793 0.90149575
H -1.8887829 -0.12971501 -0.010421642
H -0.6495771 2.8851776 1.4011927
H -1.5210171 2.2391193 0.004760709
H 2.5350986 0.09198279 1.0411865
H -1.6268166 1.429344 1.5882089
H 2.5699282 0.8891127 -0.5450804
H 3.1774004 -0.7930024 -0.38509232
H -0.9846037 -2.5862691 -0.0046574897
H -2.0996025 -2.0751977 -1.2988267
H -0.3524201 -2.0943422 -1.5904311
