17

C -1.29369186 1.94957604 0.27262106
N -0.22463593 1.10755958 0.76361729
C 0.09129206 0.08123646 0.07730135
O 1.09002314 -0.72844858 0.46055415
N -0.46076915 -0.34118529 -1.11609160
C 1.78169102 -0.31847266 1.63632103
C -0.23799310 -1.67544853 -1.64124180
H -2.26313204 1.42859638 0.22205831
H -1.41874141 2.78658551 0.96522287
H -1.08336878 2.37349729 -0.72110587
H -1.35491789 0.06834305 -1.32059164
H -0.72495196 -2.45748430 -1.04569099
H 1.10587718 -0.27312467 2.49433229
H 2.55114743 -1.07666091 1.79038267
H 2.23635688 0.66688835 1.49871034
H 0.83349296 -1.88151864 -1.67484846
H -0.62767921 -1.70993893 -2.66155119
