17

C -0.19751234 -2.0468924 -0.5735398
N -0.7128568 -0.7694794 -0.16175254
C 0.00973891 0.27717224 0.09855329
O -0.647443 1.3040541 0.4677281
N 1.3704748 0.30366337 0.040423058
C 2.105741 1.5400107 0.20468402
C -2.3796966 0.36666414 0.38345197
H 3.142784 1.3119185 0.45714012
H -2.4246178 -0.007165138 1.3984462
H 0.41077492 -1.9830008 -1.4888021
H 1.6556046 2.0974283 1.0285681
H -2.7094135 1.3963854 0.27488947
H 0.40311587 -2.5427709 0.20385684
H 2.0831928 2.171542 -0.6922045
H -2.8681924 -0.28200445 -0.33849373
H -1.0409381 -2.7100809 -0.80160713
H 1.7992438 -0.4274444 -0.5013419
