11

C 0.87786096 0.028566923 0.19202666
C 0.59344167 -0.23984914 -1.264964
C -1.5839376 -0.20965853 0.68756634
N -2.5696895 -0.7129134 0.36229056
C -0.3175958 0.41246596 1.0790358
O 1.9807507 -0.00548931 0.67730874
H 1.5307169 -0.33719113 -1.8153745
H -0.07546741 0.16168314 2.1159797
H -0.43190742 1.5015674 1.0212206
H -0.014562827 0.56336534 -1.6943225
H 0.010390444 -1.1625473 -1.3607674
