10

O -0.86375233 -0.61379717 0.87859839
C 0.12593925 0.26477470 -0.90525638
N -1.82469262 -0.62566345 -0.14020758
C -1.21903356 -0.10741097 -1.17118358
C 0.26972283 -0.09146935 0.40688959
N 1.32791016 -0.06666689 1.28034408
H -1.76709558 -0.00893985 -2.09951828
H 0.85091881 0.70736737 -1.56933986
H 1.06654176 -0.07849585 2.25696385
H 2.03354146 0.62030138 1.06270975
