10

O -1.7671564 -1.1090443 1.2101206
C -0.8788193 -0.54836076 0.6020905
N -0.86735725 -0.13596147 -0.7203171
C 0.34568572 0.46630645 -1.0504634
C 1.1120297 0.44773006 0.052012604
N 0.3715466 -0.1654483 1.0601879
H -1.6495352 -0.28354952 -1.3329629
H 0.55004126 0.8497822 -2.036654
H 2.114935 0.8100044 0.2112856
H 0.66863006 -0.33145884 2.0047002
