9

N 0.90029508 -1.46920865 1.98310098
C -1.64814365 0.45733810 -0.26091043
O -0.49646644 1.04460494 0.10730669
C 0.81823250 -0.65635779 1.16706388
O -1.34793977 -0.78631148 -0.61024073
C 0.72895975 0.38856004 0.15795799
N 1.72770839 0.72489703 -0.52082898
H -2.17654382 -1.20598837 -0.88305973
H 1.49389812 1.50246634 -1.14038958
