12

O 1.3127127 -0.41698408 1.2518127
C -0.1523786 0.09481308 -0.73438054
C 1.194187 0.5444048 -0.23616132
O -0.19802019 -1.3147372 -0.7848371
C -1.3011705 0.59264535 0.13507794
O -2.0772386 -0.16989982 0.6660956
H 1.1306294 1.5585719 0.18191253
H 0.76581323 -1.185144 0.96699727
H -0.27004373 0.54862535 -1.7363682
H -1.089679 -1.5600939 -0.48268342
H -1.3683782 1.6872727 0.26068687
H 2.0535662 -0.37947455 0.5118477
