12

O -0.50884105 1.65732376 2.02276728
C 0.31640146 0.66928297 1.49056083
C -0.18126648 0.22040421 0.13367912
O 0.59844367 -0.71672018 -0.41451123
C 0.18359189 -1.19021745 -1.70144797
O -1.17642337 0.67679515 -0.37593048
H -0.80970552 -1.64071442 -1.64128120
H 0.92388852 -1.93517025 -1.98986486
H 0.35586492 -0.21148311 2.14835173
H 1.34657388 1.03302105 1.37532749
H -1.21200559 1.80736205 1.37501770
H 0.16347765 -0.36988393 -2.42266826
