12

O 0.2541158 -2.6281438 -0.26695964
C 0.096049495 -0.37091896 0.02729594
C 0.020848371 1.9691329 -0.061067004
O 0.08461403 -0.39940947 -1.2651308
C 0.05536862 -1.7196995 0.6000857
O 0.061650462 0.7482074 0.7055335
H 0.2810221 -1.7963356 1.6753219
H 0.9253279 2.0559745 -0.6662943
H -0.8611452 1.982355 -0.70364267
H 0.20878956 -1.4338033 -1.3696895
H -1.1016589 -1.1730853 0.6445185
H -0.02498206 2.7657263 0.68002826
