11

C -0.73138595 -0.17111692 -2.314277
C -0.16515732 -0.12026012 -0.9680322
C 0.31727725 -0.087674536 0.13362065
C 0.97752374 -0.09913609 1.4372503
O 2.0844028 -0.5674616 1.6069237
N 0.2476939 0.47323042 2.4373443
H 0.00957833 0.15119946 -3.0511928
H -1.6058689 0.47910795 -2.399426
H -1.0334744 -1.1924016 -2.5602522
H 0.61448777 0.4005072 3.3736205
H -0.71507704 0.7340059 2.3044195
