11

C 0.55425828 -0.27485159 -1.19302795
C 0.03102733 0.81519776 0.92858135
C 0.52287660 -0.33906241 0.25803041
C -0.35849585 0.59495502 2.20057522
O 1.45523739 0.44094770 -1.60508311
N -0.26847089 -1.03248744 -1.97485316
H 0.01264504 -1.14059458 -2.93751146
H -0.14369388 1.77145530 0.43056282
H -0.76078581 -1.80053085 -1.54510782
H -0.10893260 -0.35409220 2.67014856
H -0.93566543 1.31906336 2.76768389
