11

C 0.9579496 0.74198157 -0.5812546
C -0.79414696 -0.0045819897 0.9471448
C -1.3523002 -1.090888 1.5186409
C 0.4965192 -0.23150474 0.39346823
O 1.2842255 1.7987472 -0.06095479
N 1.1075633 0.43668926 -1.9028288
H -0.7378921 -1.9738014 1.6812391
H 1.6919937 1.0612581 -2.437412
H -1.3507166 0.9257363 0.8140413
H -2.4003904 -1.1285517 1.7999916
H 1.0971949 -0.5350846 -2.1720755
