11

C 0.08179084 0.51325524 -1.0194312
C -0.41455048 0.46563685 -2.3023841
C 0.20465052 0.06550181 1.3835473
C 0.7648612 0.27631387 0.047981907
O -0.45679033 0.9145928 1.952146
N 0.5107595 -1.158242 1.9345602
H -0.49589375 -0.4722408 -2.848395
H -1.0014577 0.9278985 -0.8887835
H 0.30885708 -1.2456629 2.9201543
H 1.3135046 -1.6517324 1.5806049
H -0.8157315 1.3646791 -2.7600012
