10

O -0.019070847 -1.378884 -0.9561202
C -0.40427998 -0.3861073 -0.05216084
C 0.6847612 0.0065360577 0.94389194
O 0.6322433 1.385195 0.4749698
C -0.25951454 1.0738468 -0.5047905
O -0.691942 1.7747294 -1.3640659
H -0.655121 -1.3960752 -1.6811289
H -1.3817745 -0.5791809 0.4098117
H 1.6535916 -0.44358212 0.72460204
H 0.44110683 -0.056477815 2.004991
