10

O 0.9925736 0.5071073 -1.7956539
C 0.381645 0.18195756 -0.6552732
C 1.1507428 -0.27806583 0.43497282
N 0.56438255 -0.6021723 1.5657142
N -0.76105815 -0.4907584 1.6797549
C -1.4296792 -0.05440853 0.6272415
N -0.9212583 0.29572576 -0.5633867
H 0.30090243 0.7910945 -2.416233
H 2.2282135 -0.37846446 0.37921628
H -2.5064645 0.027984316 0.7436473
