10

O -1.2518098 -1.7503098 -1.4983902
C 0.84134924 -0.26127183 -0.2257111
C -1.4142082 -0.92887396 -0.62859476
N -0.3180479 0.9760562 0.48040417
N 1.7895757 0.16804144 0.6738429
C 0.9306733 1.1051428 1.0193702
N -0.3904863 -0.54989845 0.260671
H -2.3730528 -0.44701335 -0.3879489
H 1.1678416 1.9862219 1.6103203
H 1.0181652 -0.29809505 -1.3039635
