10

O 1.74959537 -0.14187304 -2.00007236
C 0.62938342 0.15753875 -1.69520247
C 0.52972415 -0.14744332 0.72498272
N -0.26486655 -0.87372340 1.72721396
N -0.01864595 -0.36797721 -0.56336591
C -1.24241094 -0.16838278 1.31007251
N -0.59323212 0.69941161 0.32802889
H -0.03823175 0.79903170 -2.29798576
H 1.54263745 0.20538221 0.88696185
H -2.29395336 -0.16196461 1.57936678
