12

C -1.1081161 0.60631263 0.63316405
C 0.7874629 0.41268194 -1.1265762
C 0.16313177 -0.03161058 0.13060205
O 1.3010069 0.80564886 0.13946268
N 0.3890253 -1.346294 0.65804255
H 1.4225653 -0.27652818 -1.6838093
H -1.0862446 0.6502539 1.7258902
H -1.2077953 1.6205852 0.23590024
H -0.30891445 -1.9924583 0.2991541
H -1.9862633 0.026278483 0.3278567
H 0.33264086 1.2084478 -1.7168772
H 1.3015008 -1.6833177 0.37719005
