12

C -0.5478964 -0.04001172 -1.0392807
C -0.30392605 -0.9634626 1.0160974
C 0.5571522 -0.072315596 0.20241396
O 1.5227902 -0.81406605 -0.20266141
N 0.8533223 1.2392557 0.7075307
H 0.034223877 1.7477909 1.0222144
H 0.16758652 -1.8882289 1.3387607
H -0.8105269 -1.0294244 -1.4163934
H 0.016618663 0.48832044 -1.8082963
H 1.3407708 1.7756349 -0.004074441
H -1.4382553 0.52213824 -0.7506984
H -1.3918599 -0.96563065 0.93438756
