9

O -2.141117 -0.30791637 -0.84286773
C -1.0757264 -0.037037503 -0.37613627
N 0.043176807 -0.9104144 -0.21558613
C 0.6342385 1.0288895 0.593232
C 1.1870252 -0.19711813 0.54120153
O -0.67622054 1.1422558 0.12389641
H 1.0386839 1.9555984 0.97540885
H 1.1106308 -0.7705919 -0.6905714
H -0.120691106 -1.9036652 -0.10857727
