9

O 1.12202146 0.23977115 -0.69925360
C 0.24422273 -0.84398076 -1.11888176
N -0.67009907 0.06498394 0.64272754
C 0.60790693 0.81002180 0.35341182
C -0.85671387 -1.05347400 -0.40036821
O 1.01311398 1.72984762 0.99912858
H 0.64030274 -1.34095411 -1.99185138
H -0.63958935 -0.31882208 1.59015228
H -1.46116550 0.71260617 0.62493459
