10

O -1.1439085 1.6221828 -0.7491402
C -0.12575775 -0.712197 -0.5640553
C -0.38346285 0.7027927 -0.15842153
C 0.7435936 -0.62284106 0.719511
N 0.32763353 0.7932402 0.90494734
H 0.42557317 -1.2655306 1.5451568
H 1.8204758 -0.7291734 0.5614491
H -1.0910056 2.4404266 -0.23311798
H -0.98593366 -1.3845968 -0.52046967
H 0.41279197 -0.84430355 -1.5058595
