10

O -0.05370498 2.10209464 -0.28200825
C 0.13331213 0.80303888 -0.05843940
C 0.43457338 -1.09486588 0.26640798
C -0.83157818 -0.32875632 -0.20394835
N 1.18743537 0.18633739 0.33283497
H 0.85422258 -1.79368971 -0.46263605
H 0.35016910 -1.58340290 1.24113118
H -1.17141695 -0.53343409 -1.22232928
H -1.67895240 -0.32419716 0.48587767
H 0.77594005 2.56687525 -0.09689029
