9

O -1.3222224 -0.6609109 0.8808721
C -0.5986531 0.2988688 0.15496136
C 0.8611039 0.19308357 0.34023422
C 2.0441465 0.07469876 0.5099453
C -0.9287267 0.23494786 -1.2950698
N -1.2041166 0.1527801 -2.4126441
H -1.0055171 -1.5393773 0.6334586
H -0.94487035 1.2678384 0.5285868
H 3.0988555 -0.021929385 0.6596557
