11

C 1.28551452 0.90697665 0.88778302
C -0.83379320 -0.10522078 0.40731552
C 0.55410097 0.32117474 -0.02751525
C 0.89664375 0.14492905 -1.48450963
O -1.73483562 -0.20117755 -0.39830200
N -0.97671774 -0.35574217 1.73493836
H -0.19171242 -0.36676249 2.36127187
H -1.89083030 -0.63081314 2.06500176
H 1.82522448 0.65542218 -1.74244354
H 0.99224030 -0.91976661 -1.72299331
H 0.07416516 0.55098008 -2.08054654
