11

N -1.2413374 1.7454997 -1.4604573
C 0.90005016 0.1558911 0.8503119
C -0.66259545 -2.4624226 -0.9039983
N -0.048889905 -1.8295265 -0.12329372
C -0.83744514 1.0236487 -0.5216805
C 0.6949596 -1.1590484 0.82623935
O 0.44941923 1.0900208 -0.03093789
H 1.1639981 -1.7817249 1.5802373
H 1.5468928 0.5803985 1.6099316
H -1.4862555 0.32984644 0.01229372
H -0.4787962 2.3074167 -1.8386459
