11

N 1.616843 -1.6003544 0.6398015
C 0.75830925 -0.7333065 0.30497718
C 0.8553548 0.6705533 0.73833925
N 0.021257075 1.590813 0.43140253
C -1.0552819 1.2042097 -0.3771958
C -1.2034943 -0.049625885 -0.80246395
O -0.32499003 -1.0413129 -0.48674312
H 1.397086 -2.5164826 0.25387734
H 1.7114596 0.91249126 1.3651634
H -1.76686 1.9765065 -0.64082956
H -2.0096834 -0.41349125 -1.426329
