11

N 0.57432914 1.5067823 1.5923223
C -0.10396303 -0.121347345 -1.4309769
C 0.026931958 -0.7747427 1.1172695
N -0.25586662 -1.734631 0.3295299
C 0.22552876 0.6467278 0.73679286
C -0.04615955 -1.4733499 -1.083187
O -0.08576964 0.9644668 -0.55550265
H 0.07110767 -0.94760907 2.1921754
H 0.625021 2.436159 1.1769986
H -1.1680201 -0.7067637 -1.6317884
H 0.13686049 0.20430781 -2.4436338
