9

O -0.46796486 1.9038634 -0.35074311
C -0.14563738 0.6208687 -0.16998664
N -0.19418511 0.06417139 1.0503719
N 0.18272254 -1.2428849 0.96672785
C 0.43088847 -1.3672023 -0.31787363
N 0.24428138 -0.24529012 -1.0732595
H -0.45597655 0.47817641 1.9310399
H 0.76353335 -2.3051057 -0.741493
H -0.35766202 2.0934033 -1.2947837
