10

O -2.389278 0.9550696 0.40810555
C -1.767328 -0.056861583 0.62710094
C -0.3571711 -0.2233468 0.21007209
N 0.2728818 -1.3418188 0.46320772
O 1.5352397 -1.177219 -0.032262214
C 1.6388762 0.04931501 -0.5778664
C 0.4712837 0.7188006 -0.46519923
H -2.2106104 -0.92244357 1.1531684
H 2.606 0.28721362 -0.99864376
H 0.2001061 1.711291 -0.78768307
