9

O -1.0408884 1.4352165 -0.34400463
C 0.57488555 0.19346663 1.0304438
C 0.95961326 -1.5230589 -0.40617713
O 1.2747885 -0.9654711 0.7911767
C -0.21726388 0.41140157 -0.02747894
N 0.03565505 -0.65207034 -0.890201
H -0.37725875 -0.7560478 -1.8043206
H -1.9609632 1.1371679 -0.30378416
H 0.75143206 0.71939534 1.9543461
