9

O 1.53811519 0.79768792 0.42553044
C 1.71577453 0.02788424 -0.67888580
C -0.46431861 0.00146215 0.04020058
O -1.78273697 -0.28715496 -0.03202166
C 0.23612265 0.78874470 0.86710149
N 0.46287649 -0.45201377 -0.89462490
H 0.23742929 -1.03639590 -1.68493803
H -1.92798020 -1.21069639 0.21890444
H -0.01528267 1.37048213 1.73873333
