9

O 0.6464251 1.0917131 1.4210199
C 0.11978258 0.3276863 0.45446888
C -0.764166 -0.68486726 0.5506275
O -0.95104086 -1.2037871 -0.7011871
C -0.27046075 -0.45116666 -1.6033665
N 0.40512973 0.5208967 -0.8930969
H 1.0088674 -0.30747736 -1.5951797
H 1.1334049 1.8112833 0.99796754
H -1.3279421 -1.104281 1.3687465
