11

N -2.125743 -0.08291578 1.6802636
C -1.4691662 0.5724947 0.9811701
O 0.48097587 -1.5437645 0.3160875
C 0.53376776 -0.58355314 -0.70761603
C 0.54159623 0.84759414 -0.19055235
O -0.7890874 1.3120737 0.18135849
H -0.27745217 -0.6983783 -1.4444281
H 0.8515355 1.5522896 -0.9609034
H 1.4814017 -0.7433299 -1.2308271
H 1.185019 0.9294179 0.6886524
H -0.41284743 -1.5619285 0.6867942
