11

C -0.82790013 0.41146321 0.41859410
C -0.14169553 -0.15427377 -0.84465592
C 0.49351583 0.12008942 1.14239824
O 0.70385493 -1.27827668 1.03670296
C 1.11180757 -0.45342359 -0.05685376
N -0.37065937 -0.22138393 -2.08269168
H -1.31377538 0.09770185 -2.30462333
H -1.05504179 1.47538294 0.30470842
H 0.95654217 0.64957220 1.96693189
H 2.14076052 -0.52129821 -0.38599680
H -1.69740866 -0.12555328 0.80548573
