12

C 2.19748915 -0.08228875 -0.47396482
N -1.04508927 0.30823744 -0.01232165
C -0.05192119 -0.47398921 0.40971545
N 1.23406083 0.11233125 0.48038692
C -2.34551191 0.11372011 -0.13922022
O 3.33988816 0.31570955 -0.37878061
H -2.95008903 0.91007691 -0.54385741
H 1.80465761 -0.64509143 -1.34428873
H -0.26670494 -1.45525959 0.80323747
H -0.71702846 1.22927877 -0.29787965
H -2.77160154 -0.83821586 0.14523175
H 1.57185047 0.50549088 1.35174122
