12

C 1.5529021 -0.0024507816 -1.6275324
N 1.2784231 0.20306922 -0.30115345
C -2.021017 -0.011677169 1.2037834
N -0.89221907 0.2546382 0.5713827
C 0.22282249 -0.44959652 0.37873673
O 2.5181394 0.45688856 -2.201869
H 0.34080878 -1.4139549 0.84775203
H -2.1406515 -0.96405864 1.7010806
H 0.78394324 -0.637061 -2.1117837
H -0.85170114 1.17129 0.12912467
H -2.8069088 0.7270062 1.1915414
H 2.0154588 0.6659067 0.21893741
