13

C 0.31727365 0.42859638 -0.74564326
C -0.08227889 -0.035063084 0.4446361
O 0.08406025 -0.18153527 -1.942355
C -0.72742724 -1.3618599 0.7028233
O 0.08437404 0.8061214 1.5514259
N 1.0798985 1.5830986 -0.91335344
H -1.7796171 -1.2528439 0.99332714
H -0.69140494 -0.7471884 -1.8577386
H 0.72293764 2.1563046 -1.6695352
H 1.1231229 2.097654 -0.04614045
H -0.67354065 -2.0268738 -0.16574615
H -0.22077808 -1.8796493 1.5293491
H 0.7633796 0.41323856 2.1189504
