13

C -0.35725517 -1.58060362 0.50183103
C 0.21516440 0.58473488 -0.67240661
O 0.19533905 0.08556212 -1.94094972
C -0.08476218 -0.10950817 0.43188407
O -0.18816480 0.60421709 1.63198921
N 0.64405526 1.91084760 -0.66366455
H -0.40162346 -0.67029440 -1.96899160
H -0.09705073 -2.09674635 -0.42846488
H 0.24188083 -2.04357392 1.29847316
H 0.17170068 2.45768250 -1.37475510
H -1.40913310 -1.78885875 0.73326804
H 0.55198062 0.33778879 2.19651578
H 0.51786854 2.30875182 0.25527131
