11

N -1.7823609 -0.23200046 -0.68612844
C -0.20547387 0.7131946 -0.9774546
C 0.122985624 1.2143434 0.4274866
O 0.54724497 0.012476628 1.0794402
C 0.28206822 -1.2080754 0.3721483
C -0.6519883 -0.7255004 -0.73663646
N 0.4978734 0.19842866 -1.850242
H 1.2166473 -1.635685 0.0023039654
H 0.9549054 1.9178398 0.39377463
H -0.24173936 -1.8976605 1.033559
H -0.7401623 1.6426386 0.9417487
