9

N -1.314788 0.952784 1.1994618
C 0.15251753 -0.8190403 0.2033489
C -0.6968734 1.0715641 0.17732161
C 0.5514396 0.5476709 -0.27460068
N 0.94003457 -0.66829175 -1.0097669
H -0.58150876 -0.16592126 1.4938093
H -0.85077256 -1.1432037 -0.0883163
H 0.3997512 -0.8508592 -1.8562711
H 1.4001999 1.0752976 0.1550135
