9

O -0.8169942 0.7815064 -2.118265
C -0.39913177 -1.0093244 0.71808124
N 0.68415534 -0.2914399 0.9084653
C -0.39111608 0.36547127 -1.076913
C 0.6899222 0.65283304 -0.20104401
O -1.055137 -0.74446386 -0.38961396
H 0.48301432 0.80095696 1.1927766
H 1.5816102 1.2153662 -0.42119122
H -0.7763231 -1.7709059 1.3877041
