11

N 0.26936528 -0.32895073 -1.0894855
C -1.7950748 0.2695201 0.029840227
C 1.5364665 -0.42414138 -0.6977557
N 0.39143795 0.26004833 1.071805
C 1.6126956 -0.056738608 0.6518821
N -0.35887465 0.08117888 -0.00090935885
H -2.019456 1.2338357 0.48762378
H -2.263867 -0.5297058 0.61127144
H 2.4643068 -0.0064695515 1.3143895
H -2.1502736 0.24007437 -0.9985001
H 2.3132744 -0.7386512 -1.3801614
