10

O 1.2635527 2.4559855 -0.40533635
C 1.1711113 1.3079698 -0.23132677
C -0.20254044 -0.74469787 -0.13897449
C 1.1002797 0.011480984 0.00049549
N -1.3368541 0.13852592 0.11028622
H -1.3432199 0.4337171 1.0799075
H -0.15556718 -1.6180226 0.53254926
H 2.0262394 -0.4926053 0.2648839
H -2.2107205 -0.35300735 -0.055667803
H -0.3122805 -1.1393465 -1.1568171
