10

O 0.5869343 -1.1286309 1.9325422
C 0.10896902 0.6514703 -0.70318127
C 0.30701673 -0.8564763 -0.5641215
C 0.2678929 -0.7115886 0.8656696
N -0.68258274 0.5172801 0.5529204
H 1.0009294 1.2662333 -0.541751
H -0.47744223 1.0255527 -1.5449855
H -0.9368951 1.2693287 1.189227
H -1.1174197 -0.51792485 -0.042089943
H 0.9425974 -1.515245 -1.1442298
