11

C -1.1437702 -0.31298837 0.7061079
N -0.0595206 0.6588521 0.6408866
C 1.1015279 0.1834728 -0.081435665
C 0.83359444 -0.16918823 -1.498178
N 0.55950505 -0.41792074 -2.5921555
H -1.5109955 -0.6389489 -0.27921855
H -1.9755447 0.12671767 1.2639608
H -0.8004482 -1.1962637 1.2568724
H -0.38905022 1.519247 0.21864986
H 1.8822918 0.9499045 -0.05945169
H 1.5024099 -0.7028842 0.42396173
