11

C -0.43388626 0.5645789 0.30447894
N -0.6113922 -1.4586741 -1.3154838
C 0.41083464 -0.5518412 0.94703156
C -0.35558408 -0.77374357 -0.29354802
N 0.21238896 1.7108083 -0.27331448
H -1.3343989 0.8232701 0.8580772
H 0.055934012 -0.9697381 1.886154
H 1.4957682 -0.48498634 0.86894083
H -0.16044459 -2.3759139 -1.253668
H 1.0878907 1.43692 -0.70495296
H -0.36711052 2.07932 -1.0237153
