11

C 0.90845126 -0.52201855 -0.51219714
N 2.075791 -0.52919555 -0.85504574
C -0.15677707 0.978164 -0.6085861
C -0.45616448 -0.4493916 -0.038015272
N -0.79188776 -0.5285633 1.3528143
H 1.4093249 0.5899199 -1.0185629
H -0.7671573 -1.4851344 1.6838199
H -1.1444628 -1.0310986 -0.65071976
H -0.1429972 0.013869383 1.9098251
H -0.7872209 1.2432896 -1.4563966
H -0.14689918 1.7201589 0.19306426
