11

O -1.4752319 1.6267995 1.2696053
C -0.752348 0.841313 0.69291544
N -0.75935334 0.56003845 -0.65218025
C 0.22337568 -0.42670196 -1.0339941
C 0.87422997 -0.7446407 0.28842366
C 0.32339758 -0.026485473 1.2646677
H -1.3962969 1.0112368 -1.287196
H 0.9516741 -0.03105232 -1.7537982
H -0.234269 -1.3179494 -1.4820429
H 1.6777682 -1.467284 0.3745127
H 0.5670533 -0.025273701 2.3190868
