11

O -1.1993566 -1.3687665 0.39366618
C -0.9881141 0.8462709 -0.39555934
N 0.521797 -0.84932256 -0.83614165
C 0.213942 1.1805489 0.15683192
C -0.81264675 -0.5807469 -0.55736387
C 1.0388874 -0.009158088 0.22485103
H -0.13962479 -0.955075 1.0653818
H 0.69462 -1.8347943 -0.6672534
H 2.1169538 0.05621876 0.36800545
H 0.47510967 2.125469 0.6188879
H -1.9215678 1.3893563 -0.37130597
