10

O 1.4474782 -1.272353 0.86879784
C 0.5488607 -0.45446396 0.32079548
C 0.8841473 0.89329195 0.08355394
N 0.006847152 1.7111434 -0.45499152
N -1.2061199 1.2592177 -0.77734786
C -1.4652681 -0.014524742 -0.53280824
N -0.640507 -0.9198775 0.0094577335
H 1.0274085 -2.142133 0.95310634
H 1.8574623 1.2978017 0.3330488
H -2.4603093 -0.35810235 -0.8036126
