10

O 1.2262095 -0.6509263 -1.7040246
C 0.48158342 -0.24325499 -0.67151034
C -0.44496226 0.76335764 -0.7921461
N 0.6459163 -0.85459584 0.5367888
N -1.0207834 0.35968757 1.9025371
C -0.15089932 -0.35952318 1.4321645
N -1.3300235 1.5062459 -0.3246563
H -0.25636888 -0.67177576 2.5713232
H 1.791408 -1.3601093 -1.3635453
H -0.9420798 1.5108944 -1.586931
