12

C -1.4713852 -0.6068658 -1.2825
C 1.8024676 0.7057078 0.8308059
N -0.29728654 -0.14123453 -0.5641823
C -0.38288814 -0.1073385 0.69317377
O 0.6106393 0.29236466 1.4951967
H -1.1967945 -1.4767674 -1.8870654
H 1.6011447 1.5604545 0.17730469
H -1.2565291 -0.39355135 1.2899218
H 2.210802 -0.10948895 0.22508168
H -2.3177018 -0.88091946 -0.63470197
H -1.7990496 0.17831217 -1.9702116
H 2.4965813 0.9793268 1.6271765
