10

O -0.13685791 -2.026094 -0.7297791
C -0.2602539 -0.67070067 -0.5397104
N 0.90184844 0.9777647 0.11253069
C -1.0222626 -0.12694818 0.62844884
C -0.2601102 0.966958 0.9223222
N 1.0323237 0.036200605 -0.71379936
H -0.8078011 -0.17588565 -1.3811946
H -0.3555798 1.7567079 1.6585286
H -0.7139542 -2.4341743 -0.06951487
H 1.6226475 1.6961715 0.112168126
