9

N 1.3504962 -1.4563652 0.4402264
C 0.83490646 -0.41252014 0.09333259
C 0.2865946 0.8018555 -0.18148288
C -1.176464 0.61117876 -0.7474781
N -0.96194655 1.0810727 0.5567238
H 1.3991365 -2.2342317 -0.21128055
H 0.91667324 1.6140299 -0.52237535
H -1.1226131 0.43287587 1.3386537
H -1.5267835 -0.43789577 -0.76631963
