11

C 0.51112396 -0.9633008 1.5005444
C 0.16730197 -0.1259739 0.31878695
N 0.6352595 1.0341616 -0.009509005
C -0.034299865 1.3595959 -1.1816533
C -0.87882966 0.3595796 -1.4980329
O -0.76042306 -0.60550404 -0.5427674
H -0.38547233 -1.1957033 2.0849235
H 1.21541 -0.41708773 2.1289454
H 0.9659764 -1.910767 1.195755
H 0.14531277 2.2892554 -1.7024475
H -1.5813597 0.17574427 -2.2945452
