10

O -1.9262662 0.48765188 -0.2849246
C 1.2248422 0.48396668 0.2719749
N 0.21401791 0.9573887 0.907097
C 0.49765697 -0.49721783 -0.6284511
C -0.689812 0.07688134 0.065253265
N -0.4042149 -1.2965165 0.23910081
H -1.8756003 1.4228151 -0.5244869
H 0.6965731 -0.82775795 -1.6406152
H -0.010484357 -1.5263803 1.1509678
H 2.2732878 0.7191689 0.44408405
