10

O 1.2401688 0.5093735 -1.7531406
C 0.4717011 0.08419598 -0.7388757
N -0.06408138 -1.0919178 -0.608039
C -0.74996275 -1.0226125 0.59183484
C -0.6132871 0.20397408 1.1652032
N 0.19039845 0.92395264 0.28476104
H 1.3063433 -0.2418094 -2.3595195
H -1.3028312 -1.8740293 0.965672
H -0.98842764 0.6355068 2.0805159
H 0.5099784 1.8733658 0.37158775
