10

O -0.6793527 1.1225371 1.3362919
C 0.5066679 0.11191023 -1.1015259
N -0.7340279 0.5814561 -0.984703
C -0.61347616 0.19802003 0.39470437
C 0.8280725 -0.7243596 0.009816767
N -0.4431348 -1.1135961 0.7142477
H 1.7590822 -0.8331178 0.54812115
H -0.8163427 1.9676343 0.87749875
H 1.1832601 0.41315258 -1.9014634
H -0.99074835 -1.7236369 0.10701159
