12

N -1.1272389 -0.71683717 0.33036393
C -0.4804167 1.6546429 0.32521838
C 1.1649474 -0.13917644 -0.19084552
O 1.2948873 -1.399203 -0.7813781
C -0.30063143 0.31655434 -0.28042
N -0.6334551 2.6745346 0.84339863
H -0.5707509 0.37814012 -1.3405933
H 1.8176498 0.5545574 -0.72712135
H -2.107705 -0.60241485 0.09875013
H 0.5219818 -1.9065546 -0.48917863
H -1.049792 -0.6729678 1.3430884
H 1.470524 -0.1412759 0.86871743
