10

N -1.2261784 -0.7077217 -0.29235843
C -0.62841964 -0.006249669 0.6980846
O -1.1217409 0.20165779 1.7857051
C 0.7635754 0.5554005 0.3806362
C 1.3073468 0.19166714 -0.9260542
N 1.6851573 -0.12605746 -1.9711208
H -2.1400702 -1.0956714 -0.11793704
H -0.78564674 -0.87593687 -1.1834459
H 0.7046161 1.645567 0.4587317
H 1.4413606 0.2173447 1.167759
