11

N 1.81646112 0.27534979 0.71114897
C 0.66281979 0.07527538 0.26768350
O 0.07522583 -1.08772605 0.02770351
C -1.25715405 -1.13593293 -0.50531546
C 0.14265627 2.41592475 0.09011570
O -0.19923627 1.16061650 -0.03735526
H 2.30034550 -0.60137320 0.87234484
H -1.46585579 -2.19954090 -0.60618669
H -1.30195020 -0.64444920 -1.47963264
H 1.19235879 2.41426097 0.47496719
H -1.96567080 -0.67240502 0.18452642
