11

N 1.6485988 -0.5599178 0.9217893
C 0.5893593 -0.22676615 0.34334192
O -0.42101198 -1.006053 -0.013437074
C 1.1916472 2.0973535 0.21505693
C -1.5604146 -0.45796496 -0.69390047
O 0.34461114 1.1266407 -0.00671935
H -2.0656626 0.28024283 -0.06739457
H 1.6680534 -1.5589057 1.0961914
H -2.2071102 -1.3166128 -0.86566204
H 2.0758839 1.6297619 0.71452904
H -1.2639537 -0.00777827 -1.6437951
