11

N -1.957371 0.6365773 1.2038265
C 0.8276263 0.94373757 -0.89723027
O -0.50337124 1.0428889 -0.58977205
C 0.73148394 -1.1517159 -0.21059619
C -0.9772099 0.34483233 0.47975132
O -0.30067158 -0.8141647 0.666604
H 0.43222773 -1.998701 -0.8386271
H 1.6609833 -1.3332919 0.33002955
H 1.4042966 1.1029506 0.042206973
H 1.0080562 -0.32048777 -1.1281933
H -2.3260505 1.5473744 0.9420006
