12

N 2.1689398 0.39478505 -0.6909761
C 0.8870244 0.1656271 -0.28229064
N 0.70455 -0.8438504 0.5849879
C -0.5418652 -1.0261675 1.00419
C -1.6086333 -0.23833677 0.58533186
C -1.2922888 0.7661143 -0.32181877
N -0.062561266 0.98362976 -0.7676845
H 2.2914083 0.96362936 -1.5144745
H 2.8327103 -0.34402743 -0.52812046
H -0.6936378 -1.8445169 1.7058475
H -2.6188056 -0.40316486 0.93766063
H -2.0668406 1.426278 -0.7126527
