14

C -2.1298828 -0.49724844 0.20024137
N 1.2333037 0.5698188 -0.17607842
C -0.044511776 0.5489509 0.34580216
O -0.7679374 -0.44163334 -0.20609754
N -0.55767477 1.3356738 1.2066653
C 1.806288 -0.56501573 -0.8781064
H -2.2076185 -0.6534807 1.2791911
H 1.8810425 1.1204742 0.36409372
H -2.5579674 -1.3397999 -0.34414
H 1.9799056 -1.4320868 -0.2285584
H 0.11159232 2.0416164 1.496424
H -2.6478238 0.431783 -0.057289887
H 1.1431887 -0.86957455 -1.689015
H 2.758096 -0.24947768 -1.3131319
