11

O 0.72998136 0.13512732 -1.9224236
C 0.28718287 -0.12149944 -0.73529214
C -0.2984705 0.5220321 1.2114853
C -1.0210295 0.56902015 -0.09736169
C 0.8770596 0.10517013 0.6882556
N 0.18298215 -1.5170013 -0.68236864
H -1.1034199 1.5641683 -0.53406805
H -0.63897663 0.69254225 2.2266893
H 1.0873414 -1.8278148 -1.0641346
H -1.9524627 0.008380917 -0.20494063
H 1.849812 -0.13012555 1.1141591
