11

O -0.29848087 0.10729321 -1.9353635
C -0.7860163 0.6608419 0.5710305
C 0.44976014 -1.0406528 0.24034084
C 0.05868516 0.12924074 -0.59791946
C -0.2514585 -0.5711725 1.2849332
N 0.84037715 0.90442985 -1.489135
H -1.8615324 0.6649026 0.37625432
H 1.072534 -1.9106388 0.06474339
H -0.39997056 -0.92581034 2.297086
H 1.6497833 0.34807563 -1.777756
H -0.47368115 1.6334904 0.9657856
