11

C 0.07946733 2.25997350 1.33716285
N -0.32715805 -0.39668549 -0.75256178
C 1.06233172 -0.72703284 -0.45552598
C -1.05370496 0.11022075 0.36909873
N -0.47942925 1.30946035 0.94234571
H -0.38091548 0.25997596 -1.52193013
H 1.64614839 0.12519435 -0.08266503
H 1.08479773 -1.52080656 0.29894021
H 1.53037557 -1.11095252 -1.36489194
H -2.07978159 0.33981354 0.07157423
H -1.08213120 -0.64916063 1.15845323
