11

C 1.3804568 0.00624464 0.02254993
N 0.2385736 -0.62263864 -0.6298206
C -0.99852645 -0.5016273 0.10800352
C -1.4272103 0.9021436 0.3394476
N -1.7046725 2.0150983 0.4754465
H 1.2492274 1.0819837 0.21217248
H 2.2653167 -0.13398731 -0.6042506
H 1.5658295 -0.4931668 0.98035973
H 0.1164789 -0.23830433 -1.5604163
H -1.7977761 -1.0234863 -0.42612317
H -0.88769734 -0.99225914 1.082631
