11

C -0.7256376 -0.3982369 0.710589
N -0.6438335 0.22841291 -0.4787454
C 0.22047544 0.7773803 2.1012166
C 0.5535861 0.0389217 -1.2833751
N 1.0186257 -0.07683255 1.9045217
H 0.4542772 0.5894238 -2.2208612
H -1.6320311 -0.2641049 1.2838706
H -0.30934522 -1.3993678 0.7265839
H -1.0538424 1.1503688 -0.50161695
H 0.6766994 -1.0254779 -1.5076214
H 1.4410263 0.3795124 -0.7345619
