9

O 0.0020776805 -0.61457133 -1.1979222
C 0.95825076 -0.31841546 -0.36388487
N 0.29314688 0.3721361 0.801055
C -1.2646072 -0.15427198 -0.63397413
C -1.2222328 0.44625553 0.55192435
O 2.1333685 -0.51716155 -0.4430313
H 0.6897627 1.3069167 0.9182852
H -2.0846076 -0.38544047 -1.2971224
H 0.49484107 -0.1354474 1.6646703
