9

O -0.35726951 -0.55222678 -1.17478676
C -1.38692148 0.02960201 -0.31705977
N 0.51777457 0.29532757 0.71470316
C -0.99142923 0.56313004 0.83520661
C 0.79744605 -0.41361124 -0.58741018
O 1.88589815 -0.74830753 -0.94784918
H -2.36206387 -0.06915198 -0.76977393
H 1.04735380 1.16888306 0.75087546
H 0.84921170 -0.27364515 1.49609450
