9

O 0.49920744 -0.57829255 -1.0899447
C -0.9771968 -0.5331852 0.7173104
N -0.105501 0.74695885 0.5603803
C -0.43169543 -1.240193 -0.28788573
C 0.7193262 0.65088177 -0.601005
O 1.433009 1.4960687 -1.0524955
H -0.4507652 1.6567906 0.8402276
H -0.060767144 0.058107477 1.5115858
H -0.62561715 -2.2571363 -0.5981734
