9

O -0.9296026 -1.1317974 -1.9677807
C -0.4063525 -0.62128633 -1.0164242
N -0.8986445 0.31848222 -0.14213356
C 0.06310236 0.6275825 0.82015926
C 1.1284512 -0.12263331 0.52761364
O 0.8720184 -0.89112544 -0.5829601
H -1.8222243 0.7052488 -0.22901353
H -0.10740988 1.3423047 1.607879
H 2.100662 -0.22677574 0.9826601
