10

O -1.9643146 0.98919946 -0.18736158
C -0.80575377 0.3502343 0.040191118
N -0.47765467 -0.2997106 1.1177182
C 0.8012884 -0.76469904 0.8559483
C 1.2176679 -0.38266638 -0.38082966
N 0.15648535 0.34788936 -0.9084872
H -2.4911182 0.863607 0.6144603
H 1.338687 -1.3508477 1.5898434
H 2.1288326 -0.5451406 -0.9319507
H 0.09587998 0.7921343 -1.8095322
