10

O -0.31751123 -2.2724185 -0.33208412
C 0.111297265 -1.0104036 -0.1453629
N -0.9606884 -0.12334721 0.0812307
C 0.29925486 2.0825074 -0.04290709
C -0.53392786 1.0683274 0.15740077
N 1.3292574 -0.6569179 -0.16323462
H 1.931044 -1.4488285 -0.36440682
H -1.28515 -2.261723 -0.2823541
H 0.67405784 2.6278183 0.82766414
H -1.2476335 1.994986 0.26405406
