10

O -1.9343559 0.44146696 -1.4174088
C 0.87085736 0.42869467 0.5448786
N -0.15101728 0.7824356 -0.049396966
C -1.0554786 -0.16439219 -0.59780663
C 1.981528 0.19303414 1.1880193
N -1.0498424 -1.3983672 -0.33083224
H -1.8138418 -1.8574111 -0.82253903
H 2.912195 0.10262995 0.64263296
H 1.9734324 0.08126706 2.2673943
H -1.7334769 1.3906419 -1.4249414
