13

C -0.55148435 0.026369898 1.704418
C 0.025859404 0.16933386 0.33002025
N 1.140454 0.7850503 0.23686992
O 1.5620267 0.8741012 -1.1022847
C -0.7162838 -0.41450185 -0.8582192
O 0.06305004 -1.310676 -1.6102768
H 0.0798163 0.5304875 2.4387407
H -1.5600828 0.45366853 1.7476723
H -0.63466656 -1.032547 1.9710957
H 2.419321 1.3049586 -1.025615
H -1.1035888 0.41350347 -1.4722093
H -1.5817897 -0.9800574 -0.4945491
H 0.85736847 -0.8196912 -1.8656627
