11

N 1.8474979 -0.11091009 -1.4371859
C 0.6004534 -0.13295206 -0.8668793
N -0.5451515 -0.24266674 -1.4443976
N -1.499319 -0.0663191 -0.43444508
C -0.8350217 0.09441966 0.65558076
N -1.3011562 0.19979426 1.9402212
O 0.5142832 0.071791716 0.4753405
H 2.5459166 -0.64584607 -0.9384294
H 1.8010573 -0.3595585 -2.4155893
H -0.8234063 0.8867728 2.505836
H -2.3051538 0.305474 1.9599487
