11

N 1.1770986 -0.73853225 -0.0049390574
C 0.04133929 -0.9191121 -0.6321671
N 0.0010383299 -2.1476142 -1.1089492
N -0.7555715 1.9029981 1.0907367
C -0.103305936 0.8334267 0.54630804
N 1.0592682 0.3560077 0.8450104
O -0.811141 0.111618035 -0.40138286
H 1.2566501 -1.982267 -0.41346765
H -0.3991444 -2.317917 -2.02525
H -0.14909422 2.469371 1.6642048
H -1.3171375 2.4320214 0.43989572
