11

N -2.1171253 -0.25281936 1.3793434
C 0.8077997 0.04743619 -0.36446634
N 0.04923528 -0.16858667 -1.3705398
N 2.1573539 0.22791529 -0.36862332
C -1.1475015 -0.23397161 0.5776439
N -1.17508 -0.47646132 -0.77545696
O 0.19705066 0.01290761 0.8485451
H 2.5355966 0.3888529 -1.2884218
H -1.8188661 -0.05699033 2.328855
H 2.5191975 0.8322559 0.35194883
H -2.0076604 -0.3205386 -1.3188281
