11

N 1.64018514 -0.46454746 -1.39139946
C 0.48880149 -0.21430424 -0.70906482
N -0.70253401 -0.20187990 -1.17256781
N -1.48279861 -0.10037921 -0.01985662
C -0.70700182 0.14736009 1.08793774
N -1.09803614 0.44778397 2.24555827
O 0.59782364 -0.03296149 0.63288612
H 2.46126433 0.01026985 -1.05116414
H 1.52286807 -0.44755686 -2.39187221
H -0.31826352 0.55888219 2.88469182
H -2.40230867 0.29733293 -0.11514831
