11

N 0.123856306 -1.7391717 -1.1263089
C -0.45599017 0.6635586 -0.45085686
C -0.658399 0.30750352 1.0236893
C 0.84161335 -0.13331641 -0.26317796
C 1.2555325 -1.8387684 -0.77736694
O 0.71222454 -0.15861799 1.1004863
H -1.3468969 -0.524493 1.1942431
H 1.7788647 0.26278126 -0.64750135
H -0.83636916 1.1226269 1.7271175
H -0.22587784 1.7221147 -0.6058934
H -1.1885583 0.31578258 -1.1744306
