9

N 0.59023285 -0.6308192 -0.87670726
C 0.37823558 -0.07959879 0.3417427
C -0.6522339 0.7350777 0.76410186
N -2.4219368 1.285604 -0.7976664
N -1.5615538 0.9841425 -0.12735367
O 1.355157 -0.39580297 1.197063
H 1.1379619 0.053016137 2.0269814
H -0.14754865 -0.63578945 -1.5591154
H 1.3216859 -1.3158298 -0.969046
