11

C -0.36339386 0.98386563 0.86791286
N -0.42942939 -0.45969106 0.66595961
C 0.53537597 -0.94958648 -0.27135857
C 0.24236017 0.21178613 -2.59620870
N 0.42417129 -0.35598248 -1.58763852
H 0.42667782 -2.03081576 -0.38222814
H -1.10579889 1.26686677 1.61862260
H -1.35852696 -0.73857615 0.37372670
H -0.54297578 1.56500711 -0.04699983
H 0.62696653 1.24422304 1.25835938
H 1.54457301 -0.73709667 0.09985268
