11

C -1.144459 -0.3124894 0.70568085
N -0.057501983 0.65713817 0.64209414
C 1.1041543 0.18493573 -0.08072654
C 0.8339006 -0.16958624 -1.4975817
N 0.55543315 -0.4175049 -2.5908625
H -1.5107081 -0.6373224 -0.27945337
H -1.9770452 0.12648141 1.2627052
H -0.8054175 -1.1972497 1.2560048
H -0.38948506 1.5162505 0.21752362
H 1.8857841 0.9508538 -0.05889306
H 1.5053446 -0.7015069 0.42350864
