10

O -0.26880002 -1.1237029 1.6072944
C -0.12769698 -0.37542027 0.50622433
C -1.0007018 0.35550886 -0.269303
C -0.2699928 0.8293944 -1.3965584
N 1.1084297 -0.2757264 -0.020416135
N 1.0525304 0.39958113 -1.2176771
H 1.9377602 -0.7678065 0.26712587
H -1.2011298 -1.1264855 1.8615736
H -2.0538278 0.50690365 -0.077132136
H 0.82342905 1.5777533 -1.2611314
