10

O -0.7960051 -1.7336236 -0.7426874
C -0.29927737 -0.5866218 -0.23505034
C 0.86325604 0.12445523 -0.4229613
C 0.7115127 1.2356508 0.44279963
N -0.43124762 1.2143654 1.1012582
N -1.0383532 0.08552281 0.6699924
H -0.15833825 -2.1033454 -1.3636211
H 1.6883727 -0.11725931 -1.0777333
H 1.4045758 2.050556 0.6027551
H -1.9444958 -0.1696999 1.0252483
