10

O 0.90787327 1.73159914 0.35484055
C -0.89992409 0.05880346 0.75528682
C -1.18371926 -1.22045320 0.15135623
C 0.20324322 0.60508057 0.15714759
N 0.63502613 -0.21013311 -0.85118560
N -0.17689657 -1.34833867 -0.72136475
H -0.15251215 -2.00056977 -1.48846980
H 1.62813853 -0.34535279 -1.00371991
H 0.52312468 2.20066821 1.10768835
H -1.48435386 0.52869639 1.53842071
