10

N -0.77651600 -0.57557140 -1.36117375
C 0.85839614 0.58916998 0.13316369
C -1.45578771 -0.53311546 -2.31331186
C -0.33696578 0.23145806 0.96649860
C 0.03524237 -0.61799272 -0.21646758
H 0.77495412 1.44632780 -0.52666838
H -1.22460425 0.84814831 0.86588230
H -0.18478924 -0.19772129 1.95235344
H 0.45731838 -1.60233269 -0.03399749
H 1.85275200 0.41162932 0.53372120
