13

C 1.0304357 -1.3106209 0.29673183
C -0.627665 0.410593 -0.53901035
O -1.1784292 -0.3610207 -1.5132092
C 0.3434617 0.021198483 0.29626292
O 0.86407036 0.98690134 1.1622764
N -1.175338 1.6864635 -0.5534147
H -2.184841 1.6834816 -0.62672585
H -0.55797666 -1.0528222 -1.7635874
H 0.45776737 -2.0801167 -0.23282833
H 0.68338287 0.7038625 2.0675268
H 2.0305822 -1.2456772 -0.15350635
H 1.1642114 -1.6690407 1.3247856
H -0.84966165 2.2267983 0.23469877
