13

C -0.14674461 -0.6208832 -0.967274
C -0.2336802 1.0415256 0.93215954
O 0.6070388 0.2879344 1.8198013
C -0.00027007697 0.74909955 -0.5315327
O -0.47229597 -0.62210846 -2.212883
N -0.05928548 -1.7351129 -0.25524756
H 0.21913329 -1.6287162 0.71249545
H -0.11695486 2.1174371 1.1247605
H 1.5175973 0.5652346 1.6521434
H -0.5943324 0.5292307 -1.9603549
H 0.9230338 1.1717721 -0.9360928
H -0.39503875 -2.6170661 -0.6153337
H -1.2482008 0.7616528 1.2373587
