11

N 0.34149992 1.6087493 -1.6178731
C -0.0434844 -0.5505999 1.0285051
O 0.8280012 0.27807182 0.060616773
N -1.2462358 -0.75704956 0.35296512
C -0.09379603 0.72447824 -0.72797567
N 0.15403047 -1.8815303 1.1909585
H -1.011406 -1.338606 -0.4447058
H -0.119948305 0.10732894 1.899753
H 0.19139421 -2.0982192 2.1889014
H -0.30756056 1.9978396 -2.2805548
H 1.3075054 1.9095376 -1.6505909
