11

N -0.6952252 0.40624687 1.9861723
C 0.020000655 -0.26178557 1.016462
O 0.7331551 -1.2154233 1.2449158
N -0.12282289 0.28450707 -0.25290036
C 0.524359 -0.23164196 -1.3648131
N 0.4054273 0.3514136 -2.4871283
H -0.72717494 -0.0872094 2.866009
H -1.5472152 0.88017404 1.7239261
H -0.61998737 1.1536924 -0.3934027
H 1.0955522 -1.1345289 -1.1429305
H 0.9339316 -0.14544475 -3.19631
