11

N -1.57498355 0.48828508 1.28070647
C -0.22557291 0.18758803 0.96042448
O -0.00139742 -0.03424942 -0.39545899
N -0.50843031 1.51183479 1.38531240
C 0.98347910 -0.92547966 -0.65052839
N 1.07650674 -1.00171461 -1.97495313
H 0.41222506 -0.43067139 1.58915372
H -1.77870229 0.20514458 2.23503876
H -0.63475452 2.09964627 0.56292357
H 1.75335466 -1.62889830 -2.37346317
H 0.49827570 -0.47148527 -2.61915549
