11

N -0.08950363 -1.72697722 -0.83593321
C 0.62557365 1.16216126 1.23355176
N -0.26843362 1.60308677 0.07371061
N -0.65496575 0.52654832 -0.82213335
C -0.04404969 -0.48538857 -0.27813281
C 0.71529353 -0.15847435 0.93014210
H 1.27830392 -0.89798176 1.48903932
H 0.21778149 2.32372069 -0.46283088
H -1.10991051 2.04385765 0.44879800
H -0.79394169 -1.88296473 -1.53951721
H 0.12385195 -2.50758767 -0.23669421
