10

C 0.771678 1.3263456 -0.67991585
N -1.200088 -1.5702415 -0.19606589
N -0.027107114 0.15879284 -0.46272513
C -0.5706342 -1.3137318 0.9506471
N -0.8474725 -0.63833433 -1.0760978
N 0.180484 -0.22656171 0.80346227
H 0.9963413 0.5909809 0.9057054
H 1.1460687 1.3751394 -1.6984745
H 0.18382053 2.2054393 -0.39606884
H -0.6330906 -1.9078285 1.8495334
