10

O -0.124086544 -1.183013 -1.0818205
C -0.06601382 -0.47880664 0.11417448
C -1.3137138 0.37319732 0.33532223
O -1.4857244 1.0083082 1.3451844
C 1.1439487 0.44393367 0.14402603
O 1.9281985 0.45129445 -0.77379096
H 0.6732594 -0.9311917 -1.5775826
H 0.022201175 -1.1524582 0.9833369
H -2.019001 0.37541056 -0.519898
H 1.2409319 1.0933256 1.0310477
