10

O -1.4911302 -0.43608838 0.6266719
C 0.6463901 -0.8234594 -0.6187802
C 0.6006438 0.8421919 0.53629434
O 0.7790213 -1.8412809 -1.2225764
C -0.50751865 0.099070765 -0.20821668
O 1.5990844 -0.065226436 -0.015037318
H 0.53698707 0.7392394 1.6211703
H -2.0439713 -1.0340059 0.108837895
H -0.9195861 0.64916074 -1.0652419
H 0.8000795 1.8703985 0.23687801
