10

O -1.5292499 0.5051687 -0.009248845
C 0.48127383 -0.09200905 0.05211203
C -0.6156394 -0.86487305 -0.5697629
O -0.85359335 -1.5519893 -1.5198249
C -0.36304405 1.0491371 0.46044955
O 1.7569437 -0.36254233 0.24519794
H -0.6873973 -1.2482803 0.59986144
H 2.157387 -0.6877698 -0.5804666
H -0.32432872 1.3674829 1.5089195
H -0.022351973 1.8856747 -0.18723713
