11

N -0.87588906 0.9904337 -1.3412246
C -0.28008038 0.23883511 -0.3108754
C 1.0160228 0.30261835 0.15537544
N 1.0777982 -0.55920446 1.2079822
N -0.07657317 -1.17728 1.4530227
C -0.91032183 -0.70095456 0.53959167
H -1.5598356 0.45678383 -1.8599759
H -0.1932319 1.3632045 -1.9878469
H 1.869739 0.87987995 -0.16688265
H 1.8711611 -0.75596243 1.7938643
H -1.9387892 -1.038354 0.5169691
