11

N 1.0646055 -0.9112072 1.0959855
C 0.6980215 0.4142174 -0.8962265
C -0.2151013 -0.6544607 0.92868996
N -1.742817 0.69309163 -0.5267889
N 1.6392609 -0.2195243 0.0634406
C -0.48300081 0.17146592 -0.19993426
H 1.6073295 0.94730186 0.031532113
H -0.9288957 -1.051408 1.6436628
H -1.7261226 1.1081315 -1.4491897
H 2.5698142 -0.50254345 -0.21753724
H -2.4830937 0.0049354318 -0.4736343
