11

N -1.89298116 -0.29949901 -0.60663059
C -0.55996451 -0.02379641 -0.23106606
C 0.25846318 0.93274334 -0.76311732
N 1.52239325 0.59257117 -0.02931516
N 1.38893845 -0.52523513 0.91778314
C 0.15161414 -0.84366182 0.73329937
H -2.19126137 0.38732689 -1.28933276
H 2.25542808 0.33721640 -0.69193916
H 1.86432552 1.40052539 0.49057934
H -0.26210284 -1.67673579 1.29365354
H -2.53485279 -0.28145504 0.17608562
