9

C 0.7772961 0.11940355 -1.6554302
C 0.15266958 0.026230296 -0.33290336
C -0.35094047 -0.041606452 0.7614818
C -0.9746649 -0.15090168 2.0665517
O -0.65945727 0.51457286 3.025323
H 0.8131666 1.1604439 -1.9876972
H 0.22110103 -0.46285942 -2.3955886
H 1.8023787 -0.25914216 -1.6153883
H -1.7815493 -0.90614086 2.1336513
