9

C 0.009020216 0.2967169 -0.39934763
C -0.13131262 0.8212989 -1.7536724
C 0.3489916 -0.39942577 2.1078503
C 0.12596388 -0.13727029 0.72685766
O -0.003494827 -1.6553466 2.3526504
H 0.24222259 0.102448136 -2.4885647
H 0.1588012 -1.8066536 3.2946393
H 0.4322853 1.7546595 -1.8632714
H -1.1824774 1.0235728 -1.977142
