9

C 0.30929354 -0.25193202 -1.8708347
C -0.07076865 0.34148479 2.1445463
C -0.03487573 0.123472586 0.74317557
C 0.13419406 -0.04286893 -0.4422288
O -1.2017391 0.25356153 2.7948575
H 0.92464614 -1.1385769 -2.0512486
H -0.2044104 0.5048507 3.3694742
H 0.80211055 0.60843253 -2.3290262
H -0.65845037 -0.3984244 -2.358715
