10

C -0.8156365 0.549066 0.9885322
N -0.09288586 -0.0011731135 -0.14282002
N -0.622022 0.022847531 -1.3721778
C 1.1301723 -0.54861933 -0.23047692
N 0.24519263 -0.49666354 -2.1593835
N 1.3542181 -0.86514443 -1.4832734
H -1.8767836 0.35459012 0.83890206
H -0.6463512 1.6254826 1.0575889
H 1.7998321 -0.7000019 0.6011908
H -0.47573587 0.059616104 1.9019177
