11

N 2.08040850 -0.37215497 1.71835507
C 1.16238340 -0.18802259 0.91905679
C 0.11357980 -0.05652561 0.15976572
C -0.99240572 0.96102404 -0.01897594
C -0.53260299 -0.82290464 -0.97628786
O -1.53759162 0.19394591 -1.10494146
H -0.96292651 -1.79444539 -0.70744808
H -1.69587270 1.04400367 0.81783738
H -0.68078630 1.96220197 -0.34164485
H 0.06554719 -0.92519362 -1.89036675
H 2.98026702 -0.00192862 1.42465032
