12

N -0.5665517 0.39496213 -1.3393636
C 1.1278974 -0.50834787 0.77020943
N 0.2264657 0.63380784 0.6310222
C 0.7638595 0.7229209 -0.780495
C 1.6798548 -0.42403597 -0.44463852
C -0.95124966 0.28146586 -0.11589687
N -2.1545064 -0.0013498905 0.44518563
H 1.178672 1.6876614 -1.0795648
H 2.4721816 -0.93673843 -0.9707911
H 1.220718 -1.1257496 1.6563581
H -2.8387923 -0.40622464 -0.17248163
H -2.1585486 -0.31837195 1.4004564
