10

O 0.39881048 0.09730061 -1.9746445
C -0.32565883 -0.16462092 -0.87330776
C 0.08547549 -0.8407987 1.2506865
C -0.08114067 -1.2723067 -0.024328131
N 0.051041078 0.55794847 1.4704046
N -0.0076658526 1.1756939 0.39347962
H 1.2336879 -0.3874125 -1.9013032
H -1.3808464 0.09295594 -1.0069461
H 0.23625073 -1.428074 2.1498637
H -0.20995387 2.1693141 0.5160954
