10

O -0.74533904 1.6883564 -1.7510997
C -0.31400427 1.547964 -0.47568387
C 1.0235575 -0.44159266 0.57078844
C 0.38588285 0.5536316 0.009243123
N -0.6602306 -1.9370745 0.63771033
N 0.3781771 -1.5484917 1.2017406
H -1.0376072 -2.689335 1.2262648
H -0.6190926 2.3878074 0.14597109
H 2.1037393 -0.4556807 0.68540794
H -0.515083 0.8944153 -2.2503426
