10

O 1.20513274 -0.84249565 -1.15645262
C -0.58617467 0.44509998 1.21061877
C 0.25805402 -0.16627504 -0.46184781
C 0.40026234 0.99403054 0.49492321
N -1.09205401 -0.21573454 -0.94144371
N -0.72264099 -0.79055461 0.42997121
H -1.15733292 -1.04577677 -1.53673427
H 1.95817775 -1.00834853 -0.57833581
H 0.95679830 1.91847049 0.49264237
H -1.22022256 0.71158442 2.04665874
