10

O -1.2817333 -0.14575621 -1.2847667
C -0.33910045 0.55649203 0.9114929
C -0.25415143 0.24046677 -0.54643315
C 0.63650185 -0.34366366 1.1709429
N 0.9786149 0.30833235 -1.072205
N 1.074578 -0.88808185 -0.035665207
H -2.0521445 -0.24469292 -0.705807
H -0.8048422 1.3785379 1.433278
H 1.0527099 -0.70746446 2.1093292
H 0.98956656 -0.15416996 -1.9801661
