10

C 0.9001228 -0.14779758 0.9326103
C -0.30289263 -0.62823325 -1.0017815
N 0.8967838 -0.84747964 -0.23431957
N 1.0603211 -0.47295132 -1.5098227
C -0.23506881 0.69937956 0.88586205
C -0.89975625 0.5199266 -0.3077631
H -1.8016838 1.029604 -0.6258422
H 1.7619009 -0.124571025 1.5785354
H -0.9001087 -1.4662817 -1.3582637
H -0.47961843 1.4384046 1.6407849
