12

N 2.1659205 0.39120764 -0.69566196
C 0.8845449 0.16379791 -0.28197625
N 0.7057574 -0.845961 0.58593196
C -0.540238 -1.0241394 1.0042478
C -1.6079428 -0.23942688 0.58593947
C -1.2918801 0.7654903 -0.32073525
N -0.060339093 0.98284966 -0.7693355
H 2.2877758 0.9677846 -1.5116504
H 2.833331 -0.34400594 -0.5308715
H -0.6938042 -1.8426286 1.7061428
H -2.6186483 -0.40196073 0.93938583
H -2.0644765 1.4269924 -0.7114168
