9

O 0.83705914 -1.7207305 -0.62450814
C 0.27367428 -0.57438487 -0.21368937
N -0.6587267 0.0698371 -0.89570534
N -0.9052394 1.1235044 -0.124146
N -0.21555403 1.2104406 0.9896974
C 0.5581065 0.1301745 0.9677343
H 0.44321504 -1.9586056 -1.4741786
H -1.5897043 1.8144913 -0.38337135
H 1.2571694 -0.094727024 1.7581671
