10

O 1.3180133 -0.9142555 0.49087778
C 0.4049914 0.13677356 0.36432257
C 0.007380705 0.44690114 -1.0777041
O -1.3917361 0.18214753 -0.7611092
C -1.0829086 -0.20737182 0.504195
O -1.8028548 -0.65899867 1.3379495
H 1.328708 -1.2007371 1.4126713
H 0.68437856 1.0218632 0.9525344
H 0.39020064 -0.27841318 -1.796833
H 0.14382692 1.4720908 -1.4269043
