10

O -0.3726491 -2.0017688 -0.72022676
C -0.1919564 -0.898812 0.06513619
N 0.3996982 1.4037601 0.0052597844
C 0.7687909 2.3252559 0.6885218
C 0.14927417 0.33150038 -0.65429646
N -0.31831378 -0.93504936 1.3248452
H 0.1914312 0.37399998 -1.7368441
H 0.07853164 3.085434 1.0479223
H -0.17439727 -1.7971057 -1.6423446
H -0.53040963 -1.8872142 1.6220267
