10

O 1.89451594 -1.01583617 -0.20870704
C -2.04303981 1.50533367 0.17853690
N 0.28130278 -0.78816842 1.42496144
C 0.71240319 -0.52109801 0.26437023
C -0.02609728 0.33305442 -0.66983043
N -1.11641423 0.89415764 -0.29056843
H -3.05859923 1.11610750 0.15325124
H 0.95663807 -1.37309283 1.91659652
H 2.08632229 -0.65613742 -1.08353229
H 0.31296826 0.50567948 -1.68507817
