11

N -0.07107477 -1.55459407 -0.35679666
C 0.50473277 -0.61879218 -1.36072787
C 0.08329324 -0.20070021 -0.02198288
O 0.85712756 0.24725904 1.04344314
C -0.20071712 1.16566772 1.31520533
O -0.99569683 0.66554357 0.24634170
H -0.12110923 -0.30391382 -2.19388168
H -1.03803091 -1.80355932 -0.53558926
H 1.54895884 -0.81003163 -1.58934324
H -0.65649909 1.00401485 2.29460371
H 0.08901547 2.20910601 1.15872738
