9

N -0.119122006 -0.8480046 0.45129597
C 0.3601483 0.3775209 0.85892326
C 0.2752383 1.1777265 -0.24611011
N -0.23899622 0.48096433 -1.3113118
C -0.46382833 -0.7275828 -0.85972077
H -0.19947915 -1.677676 1.0145253
H 0.7031854 0.5505093 1.8674604
H 0.5542002 2.2178476 -0.34461245
H -0.87134635 -1.5513057 -1.4304497
