9

N 0.01120829 -0.43077680 1.28696684
C 0.18537453 -0.87612480 -1.05358826
C -0.14642800 0.70934054 0.76811783
N -0.06528378 0.61801218 -0.70401137
C 0.20411374 -1.36123033 0.21431446
H 0.35519099 -2.39858793 0.48966683
H -0.31726739 1.65312451 1.27231488
H 0.69497018 1.17235177 -1.10009883
H -0.92187842 0.91389038 -1.17368229
