10

O 0.8004705 -1.9460763 -0.19872819
C -1.5040728 1.1601266 0.99265945
N 0.65093476 0.3302964 -0.12368871
C -0.7299032 0.36251658 -0.41306365
C 1.304446 -0.87386423 0.03117738
N -1.9215611 0.04065711 1.0201479
H -1.0190095 1.1288418 -1.1262122
H 1.1024947 1.1696279 0.20263423
H -1.0326736 -0.6286361 -0.7476552
H 2.348874 -0.7434898 0.36272898
