10

O 1.61405280 -0.00948209 -1.50040598
C 1.46954920 -0.56498033 -0.43421083
N 0.49640798 -0.26053246 0.47240074
C -0.53315033 0.71079852 0.16082349
C -1.85407919 0.08000854 0.00369699
N -2.88839957 -0.42297487 -0.08901386
H -0.24408813 1.18932478 -0.77847658
H -0.60032020 1.47567030 0.94028690
H 2.13667971 -1.36988670 -0.07618234
H 0.40334803 -0.82794578 1.30108136
