10

O 1.4745934 0.91180015 -1.360393
C 1.5283637 -0.008786168 -0.5756247
N -2.7171342 -1.0259624 -0.3070282
C -0.66884506 0.45849848 0.39720705
C -1.8198587 -0.36332047 -0.011717134
N 0.5717708 -0.2896447 0.35587162
H -0.5565453 1.2976005 -0.29425916
H 0.6630018 -1.1230788 0.9165802
H 2.382022 -0.7083983 -0.5214753
H -0.8573683 0.8512915 1.4008387
