11

C -0.65111885 -0.86154439 -1.43593012
C -0.61286195 -0.27402103 -0.08394765
N -0.99503426 -0.43613960 1.09444314
C 1.28466143 0.70196720 1.26860047
C -0.12206596 0.78120665 0.78717698
O 1.91316703 -0.33070444 1.29029622
H -1.27462253 -1.75773351 -1.45463072
H 0.36862205 -1.11878987 -1.73620223
H -1.03542052 -0.12329025 -2.14552671
H 1.73214111 1.66397790 1.59232324
H -0.60746757 1.75507132 0.82339760
