11

C -0.5339638 -1.0786344 -1.4116584
C -0.018084552 -0.2512313 -0.28654507
N 1.157735 -0.26339373 0.24980764
C 1.0918088 0.69190365 1.2548863
C -0.14064014 1.235528 1.2657181
O -0.8687433 0.6405268 0.27823535
H -1.4280926 -1.6326696 -1.1101105
H 0.24040733 -1.7869443 -1.7113038
H -0.79880154 -0.4567041 -2.271496
H 1.938085 0.91100216 1.8905236
H -0.6397102 1.9906168 1.851943
