9

O 0.81770134 -1.6738337 -0.76275545
C 0.2703325 -0.5621715 -0.24572824
N -0.30852866 -0.5112437 0.94228303
N -0.69220227 0.75818664 1.0215535
N -0.40966022 1.5257891 -0.007989713
C 0.2132397 0.7059351 -0.8490384
H 0.6967755 -2.3893566 -0.12498372
H -1.1682245 1.11237 1.8350616
H 0.58056676 1.0343248 -1.8084024
