9

O -0.7040986 -0.018684104 1.8850853
C -0.23585775 -0.013693031 0.62831426
N 0.4167465 -0.62896496 -1.2356443
N 0.5397467 0.67742956 -1.3192915
N -0.0454565 -1.1106112 -0.08680344
C 0.12674351 1.1112138 -0.13338736
H -0.86258775 -0.9378619 2.1395378
H 0.10367645 2.158462 0.12223893
H 0.66108745 -1.2372903 -2.0000498
