10

O 0.25828014 -0.63062044 -0.85203435
C 1.03094213 -1.21694173 0.09171591
C -0.36711374 0.36665623 -0.20297059
N -0.06258149 0.46054127 1.05196224
O -1.55515594 1.11892709 -2.11389753
C -1.30530712 1.23777939 -0.93979442
C 0.84297698 -0.55851109 1.25982845
H 1.62757730 -2.05705982 -0.22657530
H -1.75436849 2.01402352 -0.29643735
H 1.28475051 -0.73479458 2.22820283
