10

O 1.709502 -1.7813288 0.82874644
C 1.1518767 -1.4703233 -0.1952355
C 0.19603829 -0.34031132 -0.2624042
N -0.39461756 -0.044181548 -1.3911761
O -1.1928723 1.0317868 -1.1208413
C -1.0652848 1.3630098 0.17879881
C -0.19782726 0.5322465 0.7949185
H 1.3137281 -2.0039732 -1.1512133
H -1.6572897 2.209181 0.49843824
H 0.13674681 0.5038939 1.8199683
