10

N -0.40210941 -0.36360595 1.57336435
C 0.08681660 0.59293919 0.73602884
N 0.28614913 0.49357811 -1.76529293
N -0.52369325 -1.25165274 -0.34064691
N -0.76929398 -1.45662082 0.91930686
C -0.00184088 -0.00510372 -0.50015604
H 0.42018589 1.55946637 1.07720609
H 1.15206589 1.00887135 -1.81874264
H 0.26816927 -0.24713213 -2.45446039
H -0.51644920 -0.33073919 2.57339278
