10

N 0.6936964 -0.92441523 -1.4512069
C -0.43049732 0.84327614 -0.06640641
N 0.17714444 -1.0714507 0.88178396
N -0.41092014 -0.3687425 1.8038449
N -0.7722987 0.7804178 1.2505517
C 0.18382981 -0.3688041 -0.28350595
H 1.2232898 -1.7621853 -1.2472489
H 1.2397834 -0.28471676 -2.008675
H -0.6557849 1.6906085 -0.6932917
H -1.2482429 1.4660121 1.8141546
