11

N 0.25569921 0.62817080 1.20590773
C 0.60669243 -0.63586103 1.57820628
C -0.18501238 0.79146243 -0.11054854
N -0.55006046 1.90633622 -0.59089589
C -0.09210701 -0.61121617 -0.69259910
N 0.39878249 -1.35334158 0.45964312
H 0.29410895 1.41174304 1.83823650
H -1.07216960 -0.96611484 -1.03181047
H -0.84649929 1.81581247 -1.55938638
H 0.60768150 -0.64585233 -1.53518033
H 0.58288404 -2.34113915 0.43842722
