11

N 1.1033231 0.19698937 0.81121355
C -0.67599386 -0.35888377 -0.5253543
C 1.1630623 -1.1637874 0.74566406
N -0.12265359 2.064636 0.08987038
C 0.060106296 0.8104189 0.111677356
N 0.11672574 -1.4787539 -0.038660057
H -0.08616983 -2.435831 -0.26871297
H -0.6631958 -0.28780004 -1.618803
H -0.9392381 2.3127656 -0.46300012
H -1.7172498 -0.4050132 -0.18594563
H 1.7612835 0.7452597 1.3420508
