11

C 0.14318515 -0.09245851 -0.21560714
C -0.45820898 -0.54291373 -1.5026276
C 1.605563 -0.1464166 -0.13519183
O -0.31421342 1.1263815 -0.8941411
C -0.5216842 -0.20623581 1.1404729
N 2.7564514 -0.19994837 -0.080614984
H -0.37038028 -1.2139741 1.5348145
H -1.5294316 -0.68405896 -1.2679915
H 0.39709422 1.4730856 -1.4571401
H -0.11378717 0.51586545 1.8548187
H -1.5945882 -0.029326452 1.0232084
