11

N -1.29981903 -0.23673478 -1.23970871
C -2.43080863 0.06357137 -1.28567261
C 1.01852498 1.13679923 1.03819155
O 0.34736452 -1.00946798 0.21625954
C 0.13499085 -0.03620564 1.20793883
C 0.07686665 -0.58951609 -1.08830699
N 1.71016493 2.04635893 0.87633762
H -0.90777588 0.30503801 1.21825150
H 0.68621721 0.27827147 -1.37047551
H 0.35693753 -0.52096160 2.16135882
H 0.30733656 -1.43715260 -1.73417375
