11

N -2.1484795 1.4891906 1.0458477
C -0.80940276 -0.7324657 0.621153
C -1.5682815 0.50663406 0.8738426
O -0.22176272 -0.74417114 -0.66774595
C 1.8983896 0.23813713 0.34412277
C 0.664484 0.26184085 -0.93287927
N 2.4765182 -0.057090428 -0.66064084
H 0.30705422 1.2640396 -0.6844559
H 0.9183089 0.19800149 -1.9855909
H -1.480844 -1.5924937 0.65347254
H -0.03598458 -0.8316229 1.3928746
