11

N -1.9991578 -0.5214167 -1.9138405
C -1.5725566 0.024707966 -0.99090385
C -0.99815494 0.695422 0.19292031
O -0.30935332 -0.2012483 1.0283903
C 0.80492365 -0.8208448 0.43718863
C 1.8531628 0.15573041 0.082755774
N 2.649136 0.94049823 -0.20089449
H -1.8028461 1.114344 0.79747325
H -0.3466301 1.5123116 -0.14641131
H 1.1956729 -1.5187812 1.1789185
H 0.5258032 -1.3807229 -0.46559632
