11

O -2.14615 -0.2663718 0.7385912
C -1.1517934 -0.83280563 0.3499198
C 1.3868935 -0.43867084 0.29527807
C -0.21478409 0.76681864 -1.3754761
O 1.6866279 -1.5988244 0.41072437
C 0.010669739 -0.012511534 -0.10973167
O -0.22783971 1.3889762 0.19667265
H 2.102 0.39759994 0.4118194
H -1.0470046 -1.9261357 0.3090531
H -1.1879518 1.3953508 0.445646
H 0.7893325 1.1265742 -1.6724966
