10

N -1.15103480 1.07378464 -0.54378988
C -0.78704919 -0.28901350 0.01658255
C 1.57089566 -0.56292042 0.68624790
C 0.30397221 -0.44743358 1.02170839
C -0.44823216 0.21837289 -1.32344216
O 0.16535482 0.12848021 -2.34522525
O 2.69632160 -0.66527763 0.40543165
H -1.67692461 -0.88712899 0.19885545
H 0.06829696 -0.50144020 2.07800995
H -0.74160036 1.93257686 -0.19437877
