11

O 0.87352723 2.23943914 -0.03634553
C 0.72475010 0.99411977 0.32127477
C 0.10761121 -0.14085969 -0.42609143
N 1.32736449 1.35165082 1.36431839
C -0.52244925 -1.14443919 0.52654508
O -0.87803585 0.36137899 -1.28709028
H 0.93679565 -0.61561363 -0.97678173
H 0.22718794 -1.54272568 1.21440724
H -1.32344323 -0.66910724 1.09928622
H -0.52427228 1.13366853 -1.74648489
H -0.94903592 -1.96751156 -0.05303785
