10

O -0.014559986 -1.3731616 -0.95929307
C -0.40647554 -0.3863584 -0.051359694
C 0.68263173 0.008914154 0.94572365
O 0.635945 1.38526 0.47155598
C -0.25950515 1.0715288 -0.5029612
O -0.6884907 1.771505 -1.364982
H -0.65191805 -1.3945738 -1.6818331
H -1.3855966 -0.5861575 0.4072965
H 1.6506357 -0.44627258 0.7297675
H 0.43733352 -0.050684135 2.0060856
