10

O -1.27424607 -0.01757154 -1.18600255
C -0.83139875 0.73575025 -0.11014686
C -0.20328386 -0.35919772 0.58699684
O 1.21796801 0.30680939 0.97171908
C -0.28979858 -1.02393233 -0.79684362
O -0.83336862 1.93604088 0.02799708
H -0.70273759 -2.03278247 -0.83255984
H 0.59124449 -0.93647721 -1.44081640
H 1.30542536 0.12654106 1.91989418
H 1.02019553 1.26481963 0.85976228
