11

O -0.28925717 0.28605375 2.2033195
C -0.30274123 -1.0698142 -0.9667274
C 0.2890609 0.07970867 -1.3232281
C 0.42387143 0.9049473 -0.073685214
C -0.19583997 -0.04278038 0.9134155
N -0.60539067 -1.1509533 0.41650134
H -0.5639849 -1.9098077 -1.5987039
H 1.4623988 1.1323519 0.19378306
H -0.1238849 1.8534484 -0.11014156
H -0.71090955 -0.4619894 2.6528676
H 0.6166772 0.37883475 -2.3074005
