13

C 1.37356106 -1.07793066 -0.17271886
C -0.97576693 -0.10978495 0.41297597
O -0.81893557 -0.28185386 -1.02332821
C 0.32494097 -0.00213016 -0.23414315
O 0.81221183 1.29778191 -0.36599420
N -1.63226636 1.02871301 0.92485647
H 1.91029069 -1.13864060 -1.12616940
H -1.23642282 -1.03228242 0.93159811
H 0.91952749 -2.05295644 0.02526410
H 1.16502001 1.39128179 -1.26085883
H -2.63737577 0.96303199 0.81356555
H -1.29800740 1.86146092 0.45675173
H 2.09322275 -0.84669076 0.61820080
