10

C -0.13323957 -1.1458775 -0.78218746
C 0.20731336 1.1357521 0.77749884
N -0.75447655 0.15560943 -0.7007355
C -0.06959591 -1.2735149 0.5480397
C 0.15617539 1.261674 -0.553252
N -0.6954432 0.007182501 0.7778868
H 0.03787332 -1.7224829 -1.6785375
H 0.18409161 -2.0061321 1.2986342
H 0.4776653 1.935377 -1.3321443
H 0.5896362 1.6524124 1.6447973
