10

C -1.24471290 -0.47256952 -0.39293654
C -0.16376884 -0.88265145 -1.06616671
N 0.55043931 0.34709173 -0.81303337
C 1.25013678 0.40215639 0.44466631
C 0.16858582 0.82232069 1.11030788
N -0.65656169 0.80742623 -0.07609367
H -2.25869476 -0.77966198 -0.18796719
H 0.15885678 -1.69595276 -1.69834587
H 2.30813505 0.25546663 0.59641111
H -0.11241539 1.19637374 2.08315827
