12

N -0.88596517 1.7536076 -0.5662107
C -0.7299998 -0.58195287 0.40692797
C 1.3991209 -0.9910312 0.9714568
N 0.24639629 -0.5459767 1.4805762
C -0.35733807 0.6049521 -0.20673615
N 1.5158023 -1.1460838 -0.33465758
C 0.34077972 -0.6314099 -0.81204754
H 0.07944728 -0.7596408 -1.8624778
H -0.3492072 2.435912 -1.0857939
H -1.7172346 -1.0195421 0.56
H -1.7756354 2.0636318 -0.19401208
H 2.2338338 -1.1824661 1.6429749
