10

N 1.48311430 0.34631600 0.60872626
C -0.76109419 -0.00578674 -0.22729460
O -1.51291518 -0.77385590 -0.81059417
C 0.68589926 -0.42169015 0.01123508
O 0.94677189 -1.63798143 -0.48228407
N -1.05735671 1.20837107 0.24975745
H 2.41131840 -0.06990652 0.69107301
H 0.11864141 -1.96221517 -0.88370347
H -0.32825880 1.73485147 0.70362715
H -1.98612039 1.58189715 0.13945740
