11

O 1.0871309 -0.21955986 2.30183
C -0.9720398 -0.042953957 -0.554819
N 1.1355097 0.37964794 0.04125026
C -0.8704893 -0.3161352 0.83364236
C 0.46383527 -0.08491571 1.2591416
C 0.31986865 0.43819973 -1.0082192
H -1.6525562 -0.69983953 1.4678736
H -0.3459069 -0.8681297 -1.2459152
H 2.1423554 0.44749457 0.00938197
H 0.5738544 0.8216608 -1.9860522
H -1.8815621 0.14453088 -1.1181141
