11

O 1.25399813 -0.65302673 -2.10666424
C 0.62500453 -0.34607965 -1.11461291
N 1.14181640 0.03352305 0.09932374
C 0.12907706 0.33730315 1.08094640
C -1.13999059 0.09366845 0.30621388
C -0.86032542 -0.29379080 -0.93568281
H 2.13313728 0.08539107 0.25969791
H 0.19288680 -0.31735005 1.95967571
H 0.18892707 1.37524847 1.43418377
H -2.11922861 0.22985171 0.75067269
H -1.54530276 -0.54473879 -1.73375426
