9

O 1.6793027 0.9285709 0.60709
C 0.56326216 0.30735365 0.19413738
N 0.43010134 -0.2478991 -0.9982686
N -0.80816686 -0.72648156 -0.9565941
N -1.4789038 -0.52759606 0.1554062
C -0.62528116 0.13817517 0.92455214
H 2.3244424 0.8889211 -0.11095187
H -1.2068838 -1.21845 -1.7389569
H -0.8778731 0.45740592 1.9235857
