9

O -0.9271021 -0.82244647 -1.5535377
C 0.6639929 0.64251655 -0.42214936
N 1.0703739 0.7309615 0.85038394
N -0.5683207 -0.7867241 0.7634443
N 0.27583537 -0.19637968 1.5809427
C -0.3113489 -0.34923434 -0.46781915
H 0.26189443 1.0438443 1.7302929
H -1.5446283 -1.5109336 -1.2691616
H 1.0793031 1.2483957 -1.2123961
