9

O -0.03890719 0.77679891 1.90351156
C 0.82187400 0.19356935 -0.30572994
N 0.18168022 -0.46985806 -1.30561513
N -1.05316994 -0.81452968 -0.96949887
N -1.25198614 -0.38888253 0.24610796
C -0.13295716 0.22896798 0.68074234
H 0.52948748 -0.71487983 -2.21875752
H 1.83137218 0.56006740 -0.37548280
H -0.88739358 0.62874647 2.34472236
