9

O -0.60476565 0.05193446 1.9646496
C -0.1801105 0.14172152 0.69353396
N 0.64687043 1.0722623 -1.0697503
N 0.3140837 1.2848994 0.1722005
N 0.3673326 -0.19562417 -1.3361149
C -0.16049187 -0.843479 -0.26306325
H 0.55297476 -0.55710846 -2.257907
H -0.48006725 0.92377007 2.3657339
H -0.45582625 -1.878376 -0.26928222
