12

N 0.07598069 0.3174426 -0.86548996
C 0.019693851 0.054929566 0.43211564
C -0.94547707 -1.5728523 -0.47565302
N -0.51175886 -0.76453406 -1.4575961
C 0.71798223 1.0876416 1.2859178
O 1.1593155 2.004387 0.4097631
N -0.6205439 -1.1084146 0.7227756
H 0.76089734 1.2524431 -0.84830004
H 0.00024120398 1.4531127 2.0457022
H -1.4786632 -2.4919975 -0.6680357
H -0.6861036 -0.7963148 -2.446176
H 1.5084357 0.56415653 1.8649766
