12

N 0.15134922 -0.21200685 -1.81654417
C -1.13189847 -0.51611219 -1.54147060
C -0.14781257 0.02305242 0.22167663
N -1.36099787 -0.38058789 -0.25611370
C 0.13500470 0.26349271 1.67376768
O 1.35099827 0.93260469 1.88745668
N 0.79698065 0.14002323 -0.68847928
H 0.63331616 -0.20847971 -2.70051966
H -1.84306198 -0.82409425 -2.29696769
H -0.66388548 0.87831011 2.09921304
H 0.10389541 -0.70850391 2.19220202
H 1.97611193 0.61230165 1.22577891
