11

N -0.97977626 -1.704509 0.59554857
C -0.3472104 -0.53666013 0.1558519
C 0.96592635 -0.16022955 0.27133292
N 1.0428394 1.0513675 -0.40163934
C -0.19272088 1.3236761 -0.8779615
N -1.0595056 0.3921135 -0.5563244
H -1.9823297 -1.6028584 0.51723504
H -0.73004586 -1.9723754 1.537679
H 1.8283812 -0.62035966 0.72575575
H 1.8658863 1.6160741 -0.51611304
H -0.41144451 2.2137604 -1.4513646
