11

N -0.51273936 -0.7465045 -1.6781391
C 0.20087291 0.21883634 0.41571292
C -0.63536566 -1.8726535 1.6538919
N 0.83896446 1.2535156 1.1243587
C 0.011771256 0.26829764 -0.9195168
N -0.24434927 -0.90028495 1.1099229
H 0.35642928 1.1568618 -1.4391055
H -0.9709237 -1.4855924 -1.1621951
H 1.732469 0.9586169 1.5061839
H -1.0414045 -0.46225196 -2.4888887
H 0.2642755 1.6111592 1.8777752
