9

N 1.2675282 -0.15302002 -1.5647005
C 0.21913683 -0.021840155 -0.86315423
N 0.29371107 -0.038440716 0.5215432
C -0.78568476 0.09172588 1.3658768
O -0.71002257 0.07534132 2.5699098
H 1.046575 -0.121401146 -2.5533051
H -0.8024902 0.111368395 -1.2344368
H 1.2097496 -0.15844505 0.93863606
H -1.7385032 0.21471152 0.81963
