11

O 0.4598536 -1.0920458 -2.3364322
C 0.80870736 -0.14893234 -1.6609492
C 0.26748648 0.106420785 -0.3352296
C 0.47243056 1.0727371 0.6236585
N -0.31108052 0.8389841 1.7128372
C -0.98678374 -0.25628108 1.4243984
N -0.6757785 -0.73635626 0.20452365
H 1.565042 0.57939804 -2.014317
H 1.1421344 1.9197538 0.58000517
H -1.70983 -0.7319091 2.0729675
H -1.0321816 -1.5517695 -0.27146223
