11

O 2.6259859 0.0069412496 0.65416044
C -1.0437301 -0.30888176 0.5486081
C -0.9246565 0.069814056 -1.5386599
C 1.5079468 -0.14898278 1.0717595
N 0.3526766 0.24241193 -1.1859653
C 0.29055503 0.042714033 0.25564018
N -1.7781765 -0.29232094 -0.5608124
H -1.4583713 -0.5665751 1.5172658
H 0.37697655 1.1734312 -0.32043484
H -1.2464066 0.21830387 -2.563168
H 1.2972 -0.43685582 2.1216063
