11

O 0.19548792 -2.336352 -0.47273996
C -0.560331 1.1454201 1.1930752
C -0.016469382 0.066702165 -0.6004182
C -0.40199065 -1.3816535 -0.8916741
N -1.106811 0.71791285 0.11847202
C 1.1628438 0.24021308 0.30647224
N 0.83060235 0.88970137 1.3585811
H -1.2961527 -1.4714154 -1.5360004
H 0.12560602 0.5747631 -1.5661536
H -1.0986222 1.6845685 1.9667494
H 2.165837 -0.12986003 0.12363634
