10

O -1.40704413 1.33809207 0.42475537
C 0.75516511 0.10758394 0.47776729
C 0.90646162 -1.12577191 0.00523050
C -0.39672102 0.69384308 -0.28116770
N -0.87961716 -0.44385841 -1.10579781
N -0.11363447 -1.42062179 -0.97271327
H 1.34268510 0.63389961 1.21766135
H 1.63193580 -1.89410027 0.23522775
H -0.02190619 1.41845221 -1.01648815
H -1.81732469 0.69248157 1.01552449
