10

N 1.25504919 -1.49521615 -0.32308901
C 0.26639792 -0.71719517 -0.25615210
O -0.94206663 -1.04033744 -0.76847590
C 0.30686324 0.65124475 0.39508004
O 1.33939241 1.04741538 0.89669296
N -0.85916156 1.33537651 0.36016753
H 2.05570901 -1.05095871 0.12415777
H -0.84779507 -1.92663536 -1.15072997
H -1.68459713 0.94799178 -0.06408191
H -0.88979138 2.24831455 0.78643051
