10

N 1.6258479 -0.633304 0.93314046
C 0.7491459 -0.2827 0.09905475
O -0.9368843 0.30330014 1.6508683
C -0.62812895 0.22432317 0.479068
O 0.96278745 -0.32919413 -1.2349163
N -1.4233848 0.5542705 -0.56379914
H 1.8637596 -0.66738534 -1.3549379
H -2.353419 0.88972443 -0.36732718
H 1.2518177 -0.5170252 1.8739014
H -1.1115413 0.45799053 -1.5150521
