11

O -0.19005634 -1.1593568 2.2612388
C -0.5230311 1.5336224 0.42950615
C 1.0049281 -0.96718717 0.14740317
C 0.7462738 -0.23172759 -0.92851603
N -1.0594349 0.10944318 0.51707655
C -0.08608476 -0.7459381 1.1389292
N -0.48500046 0.47776818 -0.7311965
H -1.1564194 0.50807494 -1.4925127
H -1.4217696 2.1192393 0.16394167
H 1.8755116 -1.5793028 0.33791977
H 1.2950829 -0.06463531 -1.8437903
