12

O 1.1782984 -0.41313705 1.3982658
C -0.0102471905 0.32975343 -1.1887647
C -0.8014049 0.6740135 0.099309
O 0.780261 -0.80368674 -0.8536508
C 0.5628428 -1.0855404 0.494801
O -0.21091549 1.3836589 0.99536705
H -1.8841228 0.81593317 -0.011285601
H -0.736367 -0.6209641 0.53538185
H 0.6217983 1.1763821 -1.469445
H 0.4603153 -2.1595383 0.67600054
H -0.67834425 0.061870348 -2.0145452
H 0.7178859 0.6412553 1.3385661
