12

O 0.5801805 1.0575004 0.07307859
C 0.26435363 -1.201916 0.26130146
C -0.20079115 0.62975883 -1.0219429
O -1.307451 1.4183121 -1.2383791
C 0.5530816 0.054418083 1.0730726
O -0.5700601 -0.7031035 -0.7692512
H -0.28127325 -1.971003 0.81289434
H 1.5211349 0.044592775 1.5825931
H -1.8946775 1.3357791 -0.47596475
H 0.3917556 0.71122295 -1.9427197
H 1.1833962 -1.6291463 -0.16055104
H -0.23964931 0.25358483 1.8058684
