11

N 1.3482879 0.5631807 1.8383816
C 0.6407767 0.26419517 0.83781296
C -0.7673473 -0.17724381 0.85256076
C -1.1579782 -0.39487585 -0.39704275
C -0.013528994 -0.10632421 -1.3241777
O 1.0563655 0.29450506 -0.46858284
H 2.2858438 0.84466946 1.5538584
H -1.3305349 -0.28308108 1.7706925
H -2.1309733 -0.72486126 -0.73936516
H -0.23237151 0.70594096 -2.0265613
H 0.30146053 -0.9861053 -1.8975763
