11

N 0.78783965 -1.3012668 1.8864887
C 0.30160818 0.74848545 0.23859784
C -0.92785686 -0.3947672 0.21556969
C -0.08029986 -1.0376474 1.1106992
C 0.32694346 0.34222296 -1.2406163
O -0.6866981 -0.7044589 -1.1244888
H 1.2715002 -0.09307369 -1.5930796
H -0.11146273 1.7402327 0.45036304
H 1.0883163 -0.19189188 1.5118343
H -0.012062048 1.0897743 -1.9678742
H -1.9578283 -0.19760971 0.51250607
