11

O 1.8584956 -0.73516417 0.4479293
C 0.6965982 -0.49379674 -0.22169052
C 0.12331305 0.89342564 0.0071840687
N -1.2407634 0.76439726 -0.113923766
C -1.5555634 -0.6437047 -0.07579538
O 0.75692964 1.8128906 0.47371083
H -1.4525173 -0.9930825 -1.1226121
H -1.7440243 1.3487847 0.5472855
H 0.7811613 -0.80311936 -1.2658857
H 1.9972447 0.0022679225 1.0601808
H -0.22087376 -1.1528986 0.26361725
