11

O 1.1433259 1.4463094 1.2334605
C -0.45703498 -0.14957832 0.46407795
C 0.77157277 0.6662282 0.14174075
N -0.9931022 -1.0135919 -0.5398264
C -0.6058294 -1.268428 -1.7799983
O -0.9974286 -0.096574314 1.5426879
H 1.5890481 -0.016572967 -0.1380543
H 0.5109115 1.2665538 1.9459654
H 0.5608105 1.3017362 -0.73271286
H 0.29638317 -0.64497846 -1.9533565
H -1.818657 -1.4911038 -0.1839842
