11

N -0.6996195 0.40521488 1.9819028
C 0.02118223 -0.2623078 1.0168078
O 0.7367315 -1.2126292 1.2506521
N -0.1185001 0.28445938 -0.25304654
C 0.5263645 -0.23133093 -1.3635844
N 0.40686265 0.35149416 -2.4863105
H -0.7306221 -0.08386092 2.8643975
H -1.5525223 0.8786644 1.7233734
H -0.62326515 1.148822 -0.39666748
H 1.0968354 -1.1348933 -1.1418049
H 0.936553 -0.14363256 -3.19572
