11

N -2.2398543 0.5022564 0.21316613
C -0.92899656 0.4261878 -0.0069886185
O -0.44194996 -0.7623352 0.13307671
N 1.1285397 0.8989234 -0.3352333
C 1.0140306 -0.49555993 -0.3537595
N 2.0660563 -0.6582981 0.47365808
H 1.0102538 -0.9440258 -1.3510743
H 2.7888105 -1.2053537 0.0034711147
H -2.702499 1.3916949 0.13263594
H 1.0937275 1.1635646 0.64555335
H -2.788119 -0.31705436 0.4454944
