10

C 0.59761125 1.385117 -0.5828206
O -0.40498608 0.38704538 -0.38627437
C -0.030115228 -0.6252266 0.43189192
O 1.05109 -0.715206 0.96097744
N -1.0656338 -1.5039916 0.5828641
H 0.85744214 1.8655047 0.3652709
H 0.15261464 2.1105928 -1.2650441
H 1.4986782 0.95120305 -1.0239886
H -1.829033 -1.4606096 -0.07079022
H -0.82766813 -2.3944292 0.9879135
