10

C 0.22662291 -0.36116838 0.26723266
O -0.7134937 1.2731863 -1.1429917
C -0.018321099 0.075945 -0.970714
O 1.0296232 -1.4194872 0.5605104
N -0.34471264 0.1810645 1.4046663
H 1.5342073 -1.6514217 -0.22935064
H 0.28020105 0.19088684 2.1988156
H -0.75311637 1.0838721 1.211161
H 0.36490965 -0.42581666 -1.8555923
H -1.6059204 1.0529394 -1.4437375
