10

C -0.08553958 -0.63021815 -0.06292777
O 0.03909527 -1.707333 0.62244684
C -0.066458315 0.49511492 0.8353481
O 0.14718589 1.753102 0.205229
N -0.1362464 -0.60190845 -1.3889025
H -0.17685203 0.3066864 -1.8269712
H 0.04638272 -1.422489 -1.9435713
H 0.8882576 2.1642973 0.66703963
H 0.3346613 -0.87807715 1.4658326
H -0.99048644 0.5208248 1.4264764
