9

N -0.771534 -2.3857374 -0.63304573
C -0.63206494 1.0869269 0.20595276
C -0.43485546 -1.4311515 -0.07698394
C -0.036450475 -0.21298777 0.6167674
N 1.024086 0.51664174 -0.083309054
H -1.1010196 0.96461385 -0.78123814
H 0.6857772 1.572346 0.15438259
H 0.1839716 -0.3908483 1.668872
H 1.0820898 0.28019664 -1.0713979
