9

N 1.1105548 -0.98141515 -2.1881275
C 0.89796793 -0.5122435 -1.1528581
C 0.61537176 0.051097803 0.15563412
C -0.7092801 0.6921586 0.37907892
N -0.39365372 -0.5778589 1.0067775
H 1.4885006 0.4243496 0.6827268
H -0.76586986 1.5427221 1.0521196
H -1.4023322 0.71132183 -0.45774865
H -0.8412591 -1.3501322 0.5223976
