9

O 0.005442091 -1.5535786 -2.07847
C -0.23244396 -0.48546195 0.04649906
N 0.19030128 -0.19200066 1.172569
N 0.07422872 1.8952098 1.7800063
N 0.8544105 1.0340921 1.35814
C -0.7048469 -0.92979014 -1.0950814
H 0.65219164 2.728575 1.9421953
H -1.7521671 -0.8091718 -1.3487945
H 0.9128838 -1.6878735 -1.7770636
