9

O 0.71523991 -1.62956420 -0.25892774
C 0.21617077 -0.39035395 -0.13876367
N -0.33791571 1.72597231 -0.43246548
N -0.45044144 0.10050886 0.92644970
N -0.78617758 1.39519734 0.72981923
C 0.28594364 0.66396888 -1.01106783
H 0.31189644 -2.23545428 0.37410460
H -0.69124866 -0.33926229 1.80095266
H 0.73653257 0.70898728 -1.99010133
