9

O 0.8139363 -1.6723595 -0.76556534
C 0.2682216 -0.5619897 -0.24833865
N -0.30901438 -0.51239485 0.9403933
N -0.69013405 0.7569693 1.0234023
N -0.4089754 1.5250565 -0.0045695873
C 0.21145688 0.7072857 -0.8489066
H 0.7037926 -2.386885 -0.12494619
H -1.1684477 1.1086947 1.8367645
H 0.5791641 1.0356228 -1.8082336
