10

N 0.8245246 -1.5088923 -0.45150825
C -0.20246752 -0.6478417 -0.3625261
O -1.3330526 -0.8151106 -0.7826317
C 0.20233075 0.64831555 0.36351207
O 1.3330408 0.8149234 0.78616107
N -0.8240903 1.508569 0.45054784
H 1.711177 -1.2331392 -0.058159314
H 0.7028397 -2.3985868 -0.9052029
H -0.7037183 2.3962932 0.9061261
H -1.710584 1.2354698 0.05368125
