10

N 0.86234468 -1.33270491 -0.36575293
C 0.79468443 -0.09941141 0.18715776
O -1.49176359 -0.17830446 -0.54084049
C -0.56355652 0.57039651 0.09443885
O 1.71380511 0.48147348 0.72712928
N -0.82117997 1.71467407 0.55378957
H 0.05635743 -1.76826748 -0.78110557
H 1.74100024 -1.82453330 -0.32464999
H 0.01815097 2.09547880 0.98969250
H -2.30984266 0.34119905 -0.53985892
