11

N -1.608133 1.7350804 1.129879
C -0.037162 -1.5296025 -0.74585676
C 0.42641142 0.94584924 -0.1739897
C -0.5984166 1.3558191 0.54638475
C 0.84203404 -0.48246783 -0.2172658
O 0.17176925 -1.3745993 0.6538998
H -1.0335726 -1.2529162 -1.0882751
H 0.9954833 1.6679267 -0.7476196
H 0.3880633 -2.4313889 -1.1860379
H 1.9191799 -0.6426472 -0.27271086
H -1.4656571 2.008947 2.1015918
