11

N -0.72030816 1.86006081 -1.70133837
C 0.49775198 -0.44083195 0.73953437
C 0.87934333 0.29366914 -0.49723595
C 0.06330773 1.14438923 -1.08685305
C -0.61987005 -1.38910031 0.76389046
O -0.73582968 -0.09248481 1.34037837
H -0.71761364 2.84026851 -1.42077880
H 1.86510253 0.12635345 -0.91505671
H -1.20293757 -1.53440996 -0.14471126
H -0.61964815 -2.21811426 1.47137227
H 1.31070161 -0.58979989 1.45079820
