11

N -2.4748912 0.16665256 -1.2136565
C -1.6301539 0.430637 -0.38571414
C 1.1696192 -0.98440033 -0.21047322
C -0.60658693 0.788721 0.46562123
C 0.52320707 -0.11934755 0.78435916
O 1.8050584 0.19999734 0.25081822
H 0.57564646 -0.43960777 1.8293499
H 1.6246024 -1.9235176 0.10460265
H -1.2020311 1.0445634 -1.2653247
H 0.837874 -0.9493759 -1.2477713
H -0.6223442 1.7856776 0.8881888
