11

O -1.4030441 0.6401934 -0.8229451
C -1.1865388 -0.53474355 -0.15746062
C -0.14399137 1.2028661 -0.35658577
N 1.3647474 -0.7393306 0.283357
C 0.12207889 -0.046608537 0.4937663
O -1.853451 -1.5186615 -0.18666515
H -0.013534843 0.1312223 1.5643206
H 1.4516091 -1.0553229 -0.67694396
H -0.30911624 2.1416278 0.17324671
H 0.54849035 1.3379868 -1.190446
H 1.4227505 -1.5592293 0.8763562
