9

O 0.8409641 -1.7204968 -0.62489986
C 0.2743567 -0.57326186 -0.21557838
N -0.66001093 0.06857169 -0.8976666
N -0.907987 1.1228828 -0.12406449
N -0.2165166 1.2123468 0.9907923
C 0.5598485 0.13045917 0.96728516
H 0.4448538 -1.9608244 -1.4719484
H -1.5956529 1.8134314 -0.38029087
H 1.2601446 -0.093109034 1.756371
