10

N 0.96557665 -1.3929672 0.10528142
C -1.4796244 1.1372703 0.550179
C 0.1756722 -0.26356608 -0.02193428
O -0.72895664 1.713792 -0.4191612
C 0.24117078 0.82647276 -0.8154676
N -0.93903667 -0.0952797 0.80888045
H 1.5076168 -1.6289065 -0.7129315
H -1.0475729 0.7796218 1.7069395
H 0.85711986 1.1098816 -1.6567607
H 0.44803417 -2.1863186 0.45497507
