10

N 0.335192 0.50328255 1.0889599
C -0.20015194 0.009853767 -0.10301649
C 0.87373203 -0.34567568 -0.8241689
O 2.002236 -0.055407804 -0.07956871
C 1.6896588 0.46666303 1.1240193
N -1.5738064 0.04627596 -0.34436736
H 1.009167 -0.7787926 -1.801649
H -1.8109894 -0.31579614 -1.2577995
H -0.21245264 0.9060745 1.8333569
H -2.1125848 -0.43647757 0.36423394
