11

O 1.7362062 -1.84406 1.4690723
C 0.8574353 -0.54455775 -0.50699115
N 0.42048243 -0.93712324 2.008793
C 0.923903 -1.0072331 0.85550696
C -1.1452096 0.95248234 -0.0850009
C -0.07256335 0.32943764 -0.9215939
H -1.030762 2.041855 -0.1006388
H -1.1247289 0.605566 0.95057064
H 1.6093808 -0.94263935 -1.182021
H -0.048856333 0.6235949 -1.9716591
H -2.1252875 0.7226776 -0.5160385
