10

O 0.8379842 -1.5610887 -1.3606559
C 0.25178185 -0.51420885 -1.5622157
N 0.25709873 0.7492216 1.2820358
C -0.51239437 -0.4180834 0.78185225
C -0.35796767 0.29593438 -0.53652596
N -0.6070329 -1.5796582 1.131841
H 0.07493362 -0.13465571 -2.5916378
H -0.6249685 1.3280747 -0.7205972
H -0.3177767 1.4540458 1.7060782
H 0.99834186 0.3804184 1.8698256
