10

O 0.79684005 2.42908632 -0.43553144
C 0.59144484 1.26721918 -0.29755916
O 1.47328909 0.24423780 -0.33147630
C 0.15502503 -1.22102358 1.15993713
C -0.64199907 0.40334842 -0.04301259
C 0.41621942 -0.75417187 -0.15971187
H -1.41812390 0.39401008 -0.80959589
H -0.64183420 -1.98123384 1.03474177
H -1.06894572 0.57261947 0.95310868
H 0.33808435 -1.35409211 -1.07090060
