10

O -1.3670137 -1.9663305 -0.95528454
C 0.72847325 -0.08274004 0.54765904
O 0.67178345 -1.4181732 -0.04169682
C -0.5999676 -1.2003784 -0.4669337
C -0.64367115 0.25321406 -0.024198744
C 1.0418168 0.97802615 -0.37965393
H 0.9102287 -0.086509354 1.6187378
H -0.24204363 0.84827673 -1.0033654
H -1.4387171 0.7532762 0.51781756
H 0.939111 1.9213383 0.18691869
