10

O 1.9652282 0.12919934 -1.6872858
C -0.72835267 -1.1162928 1.0590658
O -0.10138422 -0.77426374 -1.3052378
C -0.80641127 -0.30790088 -0.11815723
C 0.9755897 -0.0023377512 -1.042886
C 0.44847593 0.5536052 0.27482232
H -1.376648 -0.5909088 1.7881275
H -1.6764978 0.27820066 -0.42758015
H 0.26031142 1.6261053 0.3309564
H 1.0396888 0.20459358 1.1281748
