10

O 0.960203 2.0882432 -1.1656237
C 0.6732081 1.1139747 -0.5487173
O 1.1308119 0.7540792 0.7066374
C 0.49943185 -0.53668386 0.56807315
C -0.9659301 -0.3665841 0.50675035
C -0.12321954 -0.14658391 -0.7422659
H 1.0739449 -1.4084117 0.84726954
H -1.5573002 -1.2784121 0.4779971
H -1.4289159 0.4747226 1.0150187
H -0.26223412 -0.69434416 -1.6651396
