10

O -0.240693 -0.17394818 2.0267596
C -0.1069211 -0.03797097 0.69007605
C 0.70346886 -0.61447626 -0.2609942
C 0.29429367 0.011773088 -1.4634794
N -0.67317057 0.8886617 -1.2753197
N -0.9055235 0.84250015 0.054002166
H 0.39405578 -0.829743 2.3369021
H 1.4652841 -1.3660427 -0.11384592
H 0.67780906 -0.15299079 -2.4611638
H -1.6086032 1.4322373 0.46706298
