10

O 1.9225887 -0.1515119 0.44381878
C -1.4063053 0.19731985 -0.82930505
C -0.030116405 0.5444208 -0.9482613
C 0.6334038 -0.050178956 0.09993129
N -1.52203 -0.56161857 0.34161767
N -0.27058935 -0.64154875 0.9054012
H -0.083780184 -1.2366148 1.695063
H -2.118211 0.4787909 0.2597165
H 0.41712037 1.1342674 -1.7372371
H 2.4579196 0.28667405 -0.23074494
