10

O 0.040851854 -1.9300382 -0.43968686
C -0.011622047 -0.618575 -0.17837182
C -0.3398129 1.609345 -0.030822134
C -0.90829283 0.3806647 -0.47684276
N 0.8811767 1.2807914 0.57372636
N 1.0114372 -0.08636339 0.5212908
H 0.029550124 1.8142216 1.2283154
H 1.8790133 -0.5363013 0.7605344
H -0.72731334 -2.1750948 -0.9716487
H -1.8549882 0.26135013 -0.9864947
