10

O 0.15638356 1.5485376 1.5302519
C 0.68052614 -0.6542916 -1.0133139
C 0.22561 0.60882497 0.5855151
C 1.3021305 0.30480644 -0.24867268
N -0.90474576 -0.13610046 0.40632465
N -0.6821346 -0.85094035 -0.7578809
H -1.0662773 -1.7901195 -0.7332694
H 1.0240347 1.9797419 1.4980966
H 1.0929012 -1.2665259 -1.8110023
H -1.8284284 0.256067 0.5439507
