10

O -0.23696466 -0.17146833 2.0251734
C -0.105489485 -0.035023574 0.69022167
C 0.7026225 -0.61373013 -0.26006073
C 0.29228622 0.00833598 -1.4628494
N -0.67464584 0.88631564 -1.2764941
N -0.90500873 0.84500605 0.054337505
H 0.39476007 -0.83135104 2.333765
H 1.4660863 -1.363732 -0.10998981
H 0.675248 -0.15879844 -2.460613
H -1.6088945 1.4344457 0.46650958
