11

C -1.1446447 -0.31306532 0.7058056
N -0.058934197 0.65822613 0.6386216
C 1.1025099 0.18598561 -0.08255082
C 0.8356968 -0.171374 -1.4985465
N 0.5594996 -0.4229489 -2.5917263
H -1.5155072 -0.64080125 -0.27676952
H -1.9755318 0.1265995 1.26482
H -0.8025463 -1.1953613 1.2581387
H -0.38802382 1.5187699 0.21672156
H 1.8831986 0.95250225 -0.059830572
H 1.504283 -0.69853264 0.4253162
