12

N 0.26198324 1.23918016 0.88550418
C 0.82391159 0.46060646 -0.29512905
N -0.31600352 -1.76641308 0.29178166
C 0.59648692 -1.65684189 1.14936903
C 0.95221388 -1.01579788 -0.09998537
C -0.44095808 1.11463347 -0.16824942
N -1.62200015 1.45493817 -0.71187734
H 1.63087340 0.92785162 -0.86624803
H 1.61042459 -1.52227395 -0.80565257
H 0.78044826 -1.90953111 2.18655840
H -2.33790825 1.76883366 -0.07031267
H -1.93947159 0.90481420 -1.49575886
