12

N -1.4017323 2.0375216 -0.006703643
C 1.2006341 -0.4118458 0.2684125
N 0.5548064 0.8246124 0.34787032
C 0.6950881 -1.5437196 -0.617119
C 0.6631387 -1.7615101 0.65804327
C -0.7304872 0.83724225 -0.019089159
N -1.2898134 -0.29566193 -0.2833817
H 0.46575108 -2.4234366 1.484276
H -0.781949 2.8278415 -0.057999577
H 2.2778559 -0.26297498 0.4089115
H 0.58433473 -1.9235339 -1.6181979
H -2.237627 2.0954647 -0.56502277
