12

N 2.1675987 0.39367166 -0.6928619
C 0.88606775 0.16316503 -0.28244776
N 0.705263 -0.84702796 0.58577645
C -0.54119855 -1.0248824 1.0066142
C -1.6067475 -0.23760946 0.5869457
C -1.2927058 0.76629376 -0.3226729
N -0.06268342 0.98240185 -0.77070093
H 2.2893138 0.96401197 -1.5138716
H 2.8329518 -0.34537637 -0.5316461
H -0.6950949 -1.8406069 1.7100189
H -2.6181529 -0.39882505 0.9397174
H -2.0646117 1.4247837 -0.7148715
