11

N -1.4341913 1.2586569 -0.08331388
C -0.3365159 -0.95277005 -0.43439272
C -0.2965242 0.4442839 -0.0017269545
N 0.8676205 0.86113745 0.34477818
C 2.0776339 0.54114985 0.24486633
N 0.7168901 -1.6668024 -0.3180753
H -1.2189296 2.2191155 0.14901702
H -2.2032056 0.92712325 0.48410395
H 0.573023 -2.5917125 -0.71661025
H 2.5347285 0.2520961 1.2038097
H -1.2805294 -1.2922779 -0.87245613
