9

O 1.6818035 0.9262318 0.6069372
C 0.5635571 0.30650008 0.19415094
N 0.4288772 -0.24583112 -0.99919415
N -0.8113873 -0.7247449 -0.95684415
N -1.4801157 -0.5280405 0.1563751
C -0.62417996 0.13649793 0.92588276
H 2.3239202 0.891576 -0.1139678
H -1.210106 -1.2177849 -1.7385554
H -0.87236905 0.45559573 1.9252154
