10

O -0.52615400 2.07701932 0.26056851
C 0.32845056 -1.09057630 0.24711476
C 0.65725173 0.16352574 -0.44432514
C 0.51480483 1.41556520 0.22762269
N -0.72090549 -0.43690554 -0.57557030
H 0.67918829 -2.04099964 -0.15744145
H -0.99382115 -0.85416364 -1.45495264
H -1.43910362 0.10097774 -0.09532432
H 0.05534934 -1.13356488 1.30348147
H 1.44493942 1.79912163 0.68882616
