10

O -1.5423899 0.37015826 1.1989564
C 1.1292261 0.09901429 -0.89879906
C -0.61859876 -0.3586423 0.45763984
C 0.7989187 0.12677012 0.38731226
N 0.0009768014 -0.312874 -1.7002728
N -0.99079776 -0.5219996 -0.96981543
H -1.6071051 1.257384 0.8219915
H -0.63735116 -1.3807298 0.8619342
H 2.059348 0.33228853 -1.4001726
H 1.4077729 0.3886305 1.2412257
