10

O -1.01303923 -1.49959534 0.82367796
C -0.39091559 -0.73669944 -0.15868785
C 0.71658042 1.23000364 -0.25767970
C 0.87828785 -0.01309430 0.18108438
N -0.60581747 1.40103536 -0.81172896
N -1.25096683 0.33512320 -0.71936096
H -0.21247540 -1.41321231 -1.00660169
H 1.38700992 2.07937126 -0.25344031
H 1.74407293 -0.46419574 0.64515996
H -1.25273663 -0.91873610 1.55757701
