11

N 0.15702705 1.8108939 -0.2076453
C -0.49528244 -1.4041084 0.5183552
O 0.13069215 -0.43089595 1.3521594
C 0.49733666 0.61771554 -0.7616386
C 1.0229164 -0.3783039 0.27976266
O 0.52233094 0.36922842 -1.9534023
H 0.2809496 -1.6468822 -0.29995736
H -0.5815014 -2.3500156 1.0538305
H -0.104839146 2.5704937 -0.81826824
H -0.022426907 1.8751515 0.7820053
H -1.4072031 -1.0332767 0.05479866
