10

O 1.45636172 0.70129301 1.50340256
C 0.66566802 0.21218775 0.53551538
N -0.64895801 0.52965465 0.52043927
C -1.18831849 -0.11920254 -0.58766940
C -0.14376639 -0.78149838 -1.15384538
N 1.02498020 -0.56934158 -0.44135867
H 2.33937230 0.34987578 1.31966537
H -1.12184106 1.12078115 1.18482312
H -2.23302738 -0.03798001 -0.84449590
H -0.15047058 -1.40576980 -2.03647644
