11

O 1.7531295 -0.9158415 -1.8325472
C 0.7306017 -0.26634666 -1.9159261
N -0.032511447 0.084980205 -0.8548918
C 0.34021598 -0.32367104 0.49060082
C -0.57819784 0.25221872 1.4703561
C -1.3428737 0.72635365 2.2672806
H 0.32410485 0.103041776 -2.8772447
H -0.8789984 0.6175284 -0.99586684
H 0.33139965 -1.4183233 0.56603867
H 1.3674934 -0.0026233857 0.69757026
H -2.014364 1.1426831 2.98463
