11

C -0.82489806 -1.4479173 -1.7565105
N 0.2505632 -0.09955816 0.58792734
C 1.0175177 0.8031766 1.4175931
N -0.14693101 -2.06815 -0.9069574
C -0.62079775 0.3730877 -0.20532084
N -1.3148394 -0.3335282 -1.1208376
H 2.0722668 0.7553831 1.1236522
H -0.94452477 1.4237069 -0.18872936
H 0.95080024 0.47129726 2.4591312
H 0.6847964 1.8494625 1.3562425
H -1.1239531 -1.7269604 -2.7661905
