11

C 0.39608794 0.38673538 -0.33189955
N 0.81267786 0.16299929 0.914358
C 0.8203845 1.102257 -1.4023576
N -1.2094848 -1.0153307 0.544169
C -0.15336391 -0.7038321 1.5090146
N -0.8454325 -0.3751376 -0.47118637
H -0.66750586 -0.27092162 2.3809369
H -1.4052086 -0.4037091 -1.316829
H 0.2538361 1.1166799 -2.324674
H 0.25932232 -1.6722822 1.8300173
H 1.738687 1.6725415 -1.331549
