11

C -1.300272 0.5177249 0.016192876
N -0.96935314 0.090740636 -1.3317298
C -0.020532643 -0.7166764 -1.1080797
N -0.91393936 -0.39382753 0.95214486
C 1.2378532 0.035973996 0.6828216
N 0.20002101 -0.8093396 0.3129822
H -0.07365823 1.217763 0.19564724
H 0.6095285 -1.2287911 -1.8254107
H 2.2084103 -0.13844925 0.21992318
H 1.2271469 0.3257664 1.7297854
H -2.2052042 1.0991149 0.1557227
