10

N 1.688543 -2.2731016 -0.076853134
C -0.37092417 -0.769151 -0.5991666
C -0.85715455 0.044490155 0.5334584
C 0.79405355 -1.5590773 -0.2706343
C 0.12479854 0.981644 -0.17995536
H -0.5337223 -0.21980835 1.5408165
H 1.0635216 1.1314965 0.3442668
H 0.3416778 0.42975995 -1.1938674
H -0.35233402 1.8744855 -0.5831178
H -1.8984593 0.3592619 0.48505303
