10

N 0.9046108 1.9268552 -1.8476976
C 0.3526246 1.0797732 -1.284845
C -0.32745188 0.023820955 -0.5716337
C -0.48117787 0.12024765 0.9294512
C 0.4643318 -0.8785008 0.34793675
H -1.1452897 -0.42820886 -1.1254592
H -1.4209468 -0.22795545 1.3462477
H -0.06619395 0.9969521 1.4150774
H 0.19064704 -1.9275966 0.356498
H 1.528846 -0.6853876 0.43442458
