10

N 1.07300725 1.10028223 -0.78563715
C 0.55217249 1.11480085 0.47356994
N 0.73974393 0.13105989 -1.63239092
N -0.09532054 -0.56169624 -0.88548336
N -1.13258640 -0.61004327 1.27401157
C -0.24050290 -0.04015722 0.36678517
H -1.19017279 -0.01145252 2.08898062
H 1.73021831 1.77291397 -1.15304461
H -0.56428734 -1.34995128 -1.30923613
H -0.87227202 -1.54575626 1.56244498
