10

N -0.4622499 0.84064054 -1.6412308
C -0.12162796 0.20936728 -0.4647423
N -0.3382072 -0.67372006 1.4248252
N -1.0275306 -0.29479164 0.34890032
N 0.9988621 -0.6175145 1.2398674
C 1.2233384 0.011164462 0.020598289
H -1.369226 0.58657676 -2.0077631
H 0.26849815 0.83164656 -2.3337395
H -0.7447146 -1.289694 2.1117136
H 1.5728576 0.39632463 1.301571
