12

N -0.84222759 -0.16333217 -1.99623124
C -0.18498873 -0.41236509 0.47166449
C -0.53640220 0.25198145 -0.85227829
O -0.35348448 1.52833171 -0.37690077
C 0.11976137 1.03049360 0.90743885
N 0.88509371 -1.37111662 0.56122907
H 1.66949034 -1.07728760 -0.01340232
H -1.07316294 -0.81646882 0.96466043
H -0.47077116 1.44113626 1.72953342
H 0.57632497 -2.27045568 0.21124148
H 1.18181479 1.24765773 1.04237699
H -0.97144809 0.61142495 -2.64933172
