17

C 1.7529718 0.59069353 -1.3373796
N 0.4493899 0.2400445 -0.81483465
C -1.1384525 -0.27546215 2.447366
O 0.9907898 0.9572729 1.2886237
N -0.93183386 -0.2238362 1.0110086
C -0.49812618 -0.35866216 -1.7323939
C 0.23095286 0.3539556 0.5405816
H -1.5211507 -0.12459334 -1.4228805
H -2.1684225 -0.57786834 2.6480896
H -0.38439524 -1.4494601 -1.8211933
H -0.973864 0.7201026 2.8652697
H 1.6563256 1.271962 -2.1918547
H -0.4509694 -0.9678688 2.9521248
H 2.3120525 1.0854837 -0.54444516
H 2.307458 -0.30126336 -1.663881
H -0.3470639 0.07752188 -2.7244844
H -1.2856624 -1.0180223 0.5002827
