17

C -2.480969 -0.92735356 0.5981227
N -1.3237647 -0.4192301 -0.11959543
C -0.26543456 0.069462575 0.6253584
O -0.3459448 0.21437803 1.8389693
N 0.85648125 0.42079905 -0.09509541
C 2.0664067 0.7591331 0.62486637
C 0.93465847 0.35024244 -1.5397384
H -2.2666407 -1.8347965 1.1785102
H -2.832235 -0.16293706 1.2953752
H -3.2759402 -1.1386805 -0.12057208
H -1.0893842 -0.92829496 -0.9587994
H 2.8556907 0.011720095 0.45663443
H 1.8332635 0.798738 1.688506
H 2.4471302 1.736266 0.30273378
H -0.021085056 0.6407291 -1.9859561
H 1.6936011 1.0592812 -1.8862232
H 1.2141668 -0.64945674 -1.9030966
