17

C -2.08552624 -0.61294273 1.62371034
N -1.27674280 -0.32497053 0.45263372
C -0.02845434 0.23375567 0.64451603
O 0.32817976 0.63406887 1.74609326
N 0.75686453 0.34409435 -0.48195782
C 2.15597568 0.67810935 -0.31992167
C 0.30461119 -0.00705097 -1.81248976
H -1.68083811 -1.43533546 2.22930025
H -3.09882102 -0.86428397 1.30333720
H -1.36932289 -0.98629675 -0.30290827
H -0.75281045 0.24823300 -1.93019910
H 2.80251999 -0.18291903 -0.54409972
H -2.12440846 0.27719914 2.25538879
H 2.31289840 0.97976432 0.71473437
H 0.86836874 0.58417944 -2.54046222
H 2.43539092 1.50495099 -0.98464336
H 0.45211562 -1.07055552 -2.05303229
