10

N -0.39307430 0.62949214 0.86840473
C -0.18711967 -1.33695639 -0.19034096
C -0.79249897 -0.89525833 0.94502059
C 0.51927804 -0.30397620 -0.95205675
C 0.40492645 0.87526409 -0.33536598
H -1.26257913 1.16329411 0.89332406
H -0.22060545 -2.37162205 -0.51395093
H 1.05842262 -0.46414513 -1.87932004
H 0.10233707 0.83897013 1.73608477
H 0.77091329 1.86493741 -0.57179952
