9

N -2.1948445 0.31075552 -1.4320657
C -1.2750434 0.45180187 -0.7487551
C -0.10072805 0.6238038 0.08837593
C 0.46847603 -0.57889295 0.75489813
N 1.1752174 0.05551192 -0.3434486
H -0.031460352 1.593239 0.5726411
H 0.92603844 -0.46098486 1.7327795
H -0.030729963 -1.5288925 0.5832812
H 1.0630745 -0.46634158 -1.2077066
