9

N -0.9093722 0.3378783 2.4102309
C -0.5737546 0.4617746 1.312576
C -0.6183315 -0.41473493 -1.1416987
C -0.23592106 0.5958756 -0.10259435
N 0.8099364 -0.3552342 -0.52052677
H 1.540489 -0.009916677 -1.1325347
H -1.0900198 -1.2650608 -0.6308211
H -0.068857 1.6290753 -0.40392599
H 1.1458309 -0.9796571 0.20929475
