11

C -0.37837815 -0.77480626 0.70524794
N 0.4624786 -0.19156301 -0.32945877
C -1.0226052 1.2513279 0.33409962
N -1.2492635 0.03651362 1.1110586
C 1.4379312 -0.8690103 -0.89077806
N 0.0871567 1.0336394 -0.57004046
H 2.028017 -0.38160452 -1.6542351
H 1.6152936 -1.8834399 -0.5639872
H -1.9424555 1.4968619 -0.21148176
H -0.2138153 -1.7935511 1.0387974
H -0.82435966 2.0756323 1.0307782
