11

C 0.9387982 1.0912088 -0.76824343
N 0.08786038 0.13828762 -0.08681267
C 0.37743577 -1.0694007 0.42453334
N -0.699006 -1.6134883 0.95904523
C -1.6393082 -0.6642889 0.73597
N -1.2179933 0.4136332 0.108151935
H 0.5763055 1.2439591 -1.7873713
H 0.9237987 2.041096 -0.22899659
H 1.9571973 0.6990138 -0.7945124
H 1.3650887 -1.5082062 0.38852507
H -2.670177 -0.77181435 1.0497109
