11

C 1.75711650 -0.72519598 -0.05425036
N 0.57719332 -0.14795251 -0.06390532
C -0.59099827 -0.78333203 0.52723934
N -1.61868318 -0.06743851 0.41443989
C -1.16738992 1.13045090 -0.28713571
N 0.24867270 1.01033886 -0.56420754
H -1.74940998 1.23733921 -1.21120178
H -1.38657948 2.00277792 0.34146717
H 2.58724330 -0.20351487 -0.50963000
H 1.85249326 -1.69489600 0.41254964
H -0.50965820 -1.75857690 0.99463475
