10

N 1.2224418 -1.6995752 0.88711864
C -0.05899879 0.33855653 0.6794403
C 0.32037634 -0.9466896 1.1372607
C 0.23702477 -0.08813673 -0.78261
C -0.8663364 0.86999995 -0.5123769
H 1.4294748 -1.0135952 -0.232268
H -1.8895366 0.5441671 -0.68481416
H 0.6008507 1.0819942 1.1220543
H -0.72493607 1.9447329 -0.6048769
H -0.27036035 -1.031454 -1.0089282
