10

N 1.28125747 -1.51116970 1.07099879
C -0.00482674 0.91322493 -1.10962041
C -1.19548192 0.30739403 -0.56514632
C -0.01340234 0.60670874 0.45215115
C 0.68027012 -0.49817436 0.79097008
H -2.03037032 0.95316889 -0.26592342
H -1.49090574 -0.73793899 -0.69440347
H -0.10101642 1.41411612 1.17262000
H 2.24837440 -1.63638652 0.79068922
H 0.62610149 0.18905672 -1.64233523
