12

C -0.19254625 -0.041294962 -1.0891838
C -0.23583336 -0.8724535 0.12390451
N 0.7009483 0.9313012 -0.49515727
N -1.3884909 -0.028769301 -0.2509177
C 0.7359782 0.12727363 0.7615349
O 0.2837268 0.8236141 1.867115
H -0.5548935 1.2042081 1.5651591
H 1.608667 0.99541694 -0.9429177
H -0.34064734 -1.9385337 0.2863083
H -0.24547 -0.28483903 -2.1438754
H -2.092084 -0.6330069 -0.67942405
H 1.7206453 -0.2829166 0.99745405
