12

C 1.0720798 0.19187504 0.7817988
C -0.3183746 0.59237766 0.35161802
N -1.016671 1.5496719 0.8098873
N -0.9062191 -0.16997805 -0.6671675
C -0.39218357 -1.2458658 -1.3414227
O -0.99541044 -1.8400012 -2.2069206
H 1.414225 0.86040854 1.5758805
H 1.7817189 0.25565636 -0.0507057
H 1.0903128 -0.83366126 1.167048
H -0.5161207 2.0444915 1.542751
H -1.8386978 0.123486824 -0.9336426
H 0.6253407 -1.5284619 -1.0291244
