11

C -0.49263445 0.36057863 -0.13242677
C 1.2269796 -1.0605016 -0.41015413
C 0.2023756 0.07230145 1.139336
N 1.1777092 -0.73108184 0.99654466
C -1.5377215 1.1524894 -0.3529728
O 0.16482498 -0.3645006 -1.0752271
H 1.0974344 -2.1388056 -0.55185235
H 2.1839228 -0.7511064 -0.84156704
H -0.07578423 0.49376997 2.1011329
H -1.9928038 1.6854504 0.4734332
H -1.9543025 1.2814059 -1.3462465
