11

C 0.35834107 -1.51356700 -0.61569105
C -0.34498541 0.51949846 0.03672806
C -1.03217150 1.65186691 0.15286213
N 1.27992785 -1.05658828 0.39998345
C 0.87121062 0.09270245 0.75938678
O -0.64187088 -0.50447457 -0.80600767
H -0.12310326 -2.44511505 -0.29941674
H -1.91561438 1.84526546 -0.44620174
H 0.88384029 -1.68050337 -1.56097704
H -0.71097658 2.40586241 0.86167721
H 1.37540251 0.68505283 1.51765682
