11

C -0.8799427 -0.8013299 -1.1900308
C -0.12619254 -0.06364759 -0.1419035
C -0.2626195 1.1324896 0.46872526
N 0.7589914 1.3030531 1.3966639
C 1.4457561 0.22126877 1.2985505
O 0.9840412 -0.66343284 0.39095262
H -1.2591003 -1.7540613 -0.80946165
H -1.7297442 -0.19599487 -1.5164078
H -0.24858615 -1.0085369 -2.0589342
H -1.0171043 1.8906491 0.31448078
H 2.3345013 -0.060456917 1.8473651
