17

C -0.45348302 -0.674673 -2.4966364
N 0.31910205 -0.2568555 -1.3479986
C 1.7423068 0.77448374 0.9555952
O -1.4301555 -0.5433629 0.1054312
N 0.36494228 0.3560174 0.9261529
C -1.3512986 -0.054171525 2.0357063
C -0.24394664 -0.14008838 -0.11168077
H -0.6298684 -0.22322379 2.829296
H -1.1109486 -1.4910178 -2.1912527
H -1.7157178 0.9646806 1.9913563
H 0.22525503 -1.032503 -3.2729337
H 2.0488167 0.90068066 2.0014617
H 1.9123111 1.7398206 0.45253432
H -2.1394954 -0.80124223 2.0368216
H -1.0759753 0.1313908 -2.9051733
H 2.41683 0.02673468 0.51330674
H 1.1213249 0.32332966 -1.521987
