17

C -1.531898 2.2391324 0.13574643
N -0.6618806 1.1797777 -0.33936703
C -0.112148516 0.3185237 0.59551954
O -0.22971359 0.5202352 1.7961938
N 0.60548365 -0.7387215 0.08124233
C 1.0456402 -1.7851979 0.9803883
C 0.8337384 -0.9380345 -1.3348304
H -2.4657533 1.8601613 0.57187843
H -1.0103819 2.8067782 0.9097356
H -1.7645112 2.906997 -0.6963224
H -0.9308348 0.7737533 -1.222679
H 0.5269382 -2.7325737 0.776059
H 0.82471514 -1.4741945 2.0007308
H 2.1250644 -1.9549079 0.8798455
H 1.0004367 0.021166053 -1.8352379
H 1.7391111 -1.5390797 -1.4665346
H 0.005994365 -1.4638155 -1.8323681
