11

C -1.12252321 1.02813563 0.14653287
C 1.00640516 -0.33970800 -0.40982252
O 1.60553290 -1.58059295 -0.21615334
C -0.31332722 -0.23003228 0.33598916
O -0.67442288 -1.15231782 1.03560620
H 0.81645677 -0.15324700 -1.47853047
H -0.48104371 1.91232242 0.06307239
H -1.68851735 0.94239010 -0.78905568
H -1.83085873 1.14798379 0.96772067
H 1.65599828 0.48009866 -0.05787555
H 1.02630016 -2.05503266 0.40251636
