11

C -0.41151506 0.91614836 -1.1531271
C -0.07296981 -0.33319068 -0.37844437
O -0.056664146 -1.437862 -0.88005835
C 0.2795478 -0.18407573 1.0925722
O 0.6527753 -1.402072 1.6523051
H 0.5156521 1.3359236 -1.560713
H -0.8667078 1.6804583 -0.5133966
H -1.0726545 0.6770338 -1.9875758
H -0.59843653 0.24304964 1.604946
H 1.086744 0.5611283 1.1824367
H 0.5442288 -2.0565417 0.9410553
