10

N -0.61969143 2.816863 0.86285704
C -0.84772015 0.2626028 0.39025295
O 0.38670763 0.4399837 -1.170386
C -0.69150025 1.6913697 0.6033063
C 0.9829646 -0.63159275 -0.87479854
N 0.5792162 -1.2479732 0.18809721
H -0.974371 -0.22115842 1.355797
H 1.0197282 -2.115309 0.4786622
H -1.6281528 -0.0024088514 -0.31409842
H 1.7928193 -0.99237686 -1.5196898
