10

N 0.8048068 -0.15941493 1.6791933
C -0.37907833 0.13768174 1.3638105
O -0.79485387 0.2095149 0.08897537
C 0.21601176 -0.08495236 -0.8724129
C -0.38568854 0.04251321 -2.2026658
N -0.8140072 0.13051157 -3.2741668
H 0.9181747 -0.15724766 2.6907861
H -1.2165616 0.3725656 2.0262384
H 0.5960175 -1.1010122 -0.72892684
H 1.0551788 0.60984015 -0.77083164
