11

O -2.2981184 -0.623909 -0.42926726
C -1.1555 -0.3744095 -0.16399918
C 0.11351816 -1.2127514 0.040677167
N 0.7553492 -0.048665393 0.7291639
C 0.8589441 0.98218757 -0.28272843
C -0.44322324 0.8102476 0.41494036
H -0.05880716 -2.039589 0.7355748
H 0.6582527 -1.5758249 -0.8363717
H 0.96036404 0.69826263 -1.3292774
H 1.4567726 1.8362403 0.021509519
H -0.8475523 1.5482111 1.0997784
