11

O -2.07366869 0.81988895 0.78826928
C -0.24057375 -0.88497212 0.62129173
C 1.17997748 -0.56466831 1.00276281
N 0.70726833 -0.43938831 -0.44152334
C -0.09092219 0.77775561 -0.77082288
C -1.06298028 0.35156919 0.35033622
H -0.64394828 -1.89282512 0.66207346
H 1.05826960 -1.05866555 -1.15847375
H 0.48733484 1.69892276 -0.67319839
H 1.25575035 0.46743945 1.36967676
H -0.57650771 0.72494347 -1.75039172
