11

O -2.0248404 1.0893103 0.7264614
C 0.7687318 -0.9390603 0.44799858
N -0.38850498 -0.48677114 1.1048915
C 0.9629925 -0.2716228 -0.69028354
C -1.0104024 0.5190481 0.39773256
C -0.14675133 0.7311542 -0.8485112
H 0.20223962 1.7694962 -0.87766427
H -0.7418434 -0.8378411 1.9798125
H -0.7536622 0.57558995 -1.7463624
H 1.7758048 -0.41850466 -1.3876855
H 1.3562362 -1.730799 0.89361054
