11

O 0.37939456 0.99362415 2.2903516
C 0.32713765 -0.2716768 -1.0676273
N -0.8674203 -0.30359966 0.79373235
C -0.83444864 -0.77933 -0.45828804
C 1.063501 0.48935494 -0.0036737681
C 0.27049294 0.49443394 1.1769232
H -1.6037154 -1.4159567 -0.87142056
H 1.9920424 1.0108137 -0.16306864
H 0.77829957 -0.66927004 -1.9696931
H 0.124541454 0.873913 -1.1729814
H -1.6298252 -0.4223063 1.4457453
