11

C -0.7307088 -0.17037357 -2.3148546
C -0.16190682 -0.12078502 -0.9695411
C 0.32012233 -0.088773414 0.13236284
C 0.97660893 -0.10022166 1.4380878
O 2.083158 -0.56841606 1.6098882
N 0.2454542 0.47146598 2.438247
H 0.0077513647 0.15309161 -3.0539353
H -1.6069691 0.4780798 -2.3970098
H -1.0317591 -1.1920309 -2.560619
H 0.61486125 0.40273574 3.3738585
H -0.71661204 0.7352275 2.303515
