17

C -1.5314888 2.2371426 0.13654128
N -0.66537356 1.1764373 -0.34023753
C -0.11227515 0.31841162 0.59533215
O -0.22663738 0.5230653 1.7952752
N 0.6017435 -0.74100304 0.080303766
C 1.0459828 -1.7862654 0.98039293
C 0.83231413 -0.9360827 -1.3364704
H -2.4646893 1.8618088 0.576492
H -1.0072924 2.8079667 0.90741944
H -1.767215 2.9035294 -0.6953073
H -0.93291706 0.7677629 -1.2226499
H 0.53112525 -2.7367404 0.78066707
H 0.8303217 -1.4718852 2.0007865
H 2.1254303 -1.9516613 0.8751862
H 0.991328 0.026174605 -1.8334827
H 1.7414504 -1.5309875 -1.4667463
H 0.008192 -1.4676735 -1.8335028
