17

C -2.68334909 -0.19077484 0.17920711
N -1.58092667 -0.06278215 -0.74835636
C -0.30000444 0.00238794 -0.27264296
O 0.47503431 0.37427791 -1.33372302
N -0.04560585 -0.26305503 0.94098694
C 1.27532041 -0.31130909 1.52361310
C 1.88570956 0.40874259 -1.26482922
H -2.79157989 0.68155762 0.83501348
H 1.79463069 0.65977648 1.50366267
H 2.23688457 1.15687833 -0.54204801
H -3.60051335 -0.32581748 -0.39893045
H -2.51937748 -1.06946937 0.80515582
H 1.15226367 -0.57809982 2.57863285
H 1.92991027 -1.07627996 1.07740467
H 2.21130982 0.70360193 -2.26402821
H 2.29954656 -0.58036910 -1.03057295
H -1.73925363 0.47073424 -1.58854585
