17

C -2.3287747 -1.3253042 0.29874653
N -0.09710875 0.13060486 0.9644929
C 0.989482 0.9274046 1.4851258
O 0.5007283 0.0059566973 -1.376152
N -1.2398266 -1.0695395 -0.6182419
C 1.7238114 0.7128251 -1.3576151
C -0.21791863 -0.24176712 -0.24166639
H 2.0659332 0.7148194 -2.3941019
H 1.0386217 1.9357036 1.0446638
H -2.9149878 -0.42646667 0.52503204
H 1.9763986 0.44776413 1.3917935
H 1.5857389 1.7508249 -1.0275605
H 0.8048469 1.063029 2.5560613
H -2.9800773 -2.079925 -0.14849189
H 2.4708533 0.20438485 -0.7348022
H -1.9206755 -1.7105758 1.2346009
H -1.4570447 -1.0397388 -1.601885
