9

N 0.044496037 -1.2881787 0.89445704
C 0.6025017 1.4547424 0.09608003
O 1.1261634 1.2671915 1.155027
C -0.27637753 -0.7411048 -0.17128992
O -0.106707506 0.5502834 -0.62683696
C -0.80428016 -1.6108148 -1.452322
N -1.8271339 -1.3274752 -0.91254175
H 0.6177045 2.3948855 -0.4697747
H 0.6236333 -0.6995298 1.4872012
