17

C -0.14127934 0.26134464 0.016487148
N 0.7707695 -0.47544825 -0.5352233
C 1.1296989 1.0829831 -1.8639838
O -0.31008598 1.3961362 -0.5369776
N -0.8521429 -0.08831849 1.1291775
C -1.9731439 0.7145807 1.5775461
C 1.1843385 -1.7768337 -0.07740423
H -2.8602788 0.6019081 0.94161546
H 1.9660614 1.4914542 -1.308728
H 0.361996 -2.507596 -0.09213963
H -2.2285924 0.4346542 2.600842
H 1.4133102 0.26678422 -2.5240068
H -1.6745831 1.763632 1.5649225
H -0.90340286 -1.0746355 1.3212267
H 1.9569395 -2.157152 -0.7583976
H 0.54181117 1.8306448 -2.3886755
H 1.6185843 -1.7641386 0.93371886
