10

N -0.65541023 -1.2181756 1.1906954
C -0.17860486 -0.30529678 0.25871474
C -0.7810204 0.732635 -0.3744497
O 0.14149816 1.2674168 -1.2492344
C 1.2316566 0.516222 -1.0827707
N 1.1190192 -0.42856422 -0.2103356
H -1.3204639 -0.8383216 1.8474469
H 0.103767894 -1.6872193 1.664466
H -1.754687 1.1952041 -0.3589988
H 2.0942445 0.7660996 -1.6855336
