10

N -0.00350156 -1.18273868 1.51546269
C 0.38292100 -0.66716827 0.33487198
C -0.55375047 1.15467475 -1.13775042
O -1.60241644 0.58374483 -1.32469969
C 0.60928362 0.52446698 -0.44845721
N 0.87627492 -0.94828099 -0.78761394
H -0.66092520 -0.63844516 2.05066992
H -0.13475275 -2.18317494 1.54983769
H -0.39423490 2.20113569 -1.47110471
H 1.48110174 1.15578580 -0.28121607
