10

N 0.6035853 -0.17574005 3.3062534
C 0.35157853 -0.030842327 2.1878965
C 0.04205062 0.13385753 0.7989788
N -0.65460557 1.120622 0.2862148
C -0.70121473 0.86457795 -1.054213
C -0.024028195 -0.28956392 -1.3524237
N 0.45095026 -0.7530222 -0.15563872
H -1.2208762 1.5255803 -1.7335575
H 0.15682349 -0.80769455 -2.2811182
H 0.99573636 -1.5877749 -0.002392518
