10

N 1.0000819 -1.2946669 -0.27902833
C -0.008644608 1.7114488 0.27733043
C 0.92455083 1.166382 0.96252996
N -0.2983871 0.34806567 0.7737341
C -0.12264863 -0.7294721 -0.12343417
C -1.3765211 -1.1574591 -0.73432624
N -2.343421 -1.4988853 -1.2621185
H -0.5538612 2.4874828 -0.23621358
H 0.92387897 -2.1178007 -0.87535954
H 1.8549719 1.0849051 1.4968858
