10

N -0.20154408 0.11493242 0.86891859
C 1.22126655 0.28705882 1.25212230
C -0.37584504 -0.52797846 -0.37734275
N -2.63714021 0.06767012 -1.54017359
C 0.60827023 1.35289768 0.89761847
C -1.65246849 -0.19825088 -1.00189896
N 0.46450168 -1.36466809 -0.82225442
H 0.42812866 2.40696222 0.75721082
H 0.13024682 -1.81148174 -1.67524815
H 2.01458375 -0.32714228 1.64104755
