10

N -0.20478507 -1.03266731 -0.80250667
C 1.08515046 -0.78162225 -0.62193056
C 1.03481070 0.41960547 0.31427155
C -0.41854477 0.71880296 0.56951564
C -1.12627771 -0.17295862 -0.11862044
H -0.52532286 -1.78743948 -1.39508239
H 1.56917596 1.25943413 -0.14999944
H 1.59148540 0.18799336 1.23140593
H -0.81325616 1.50979050 1.19471567
H -2.19243592 -0.32093873 -0.22176947
