10

O -0.82091328 0.96948830 0.30736799
C 1.73054135 0.16602220 -0.01826954
N 1.48939305 1.54797910 0.62305537
C 0.51434853 0.84002176 0.29834894
C -1.57693626 -0.11011562 -0.05504390
N -1.11988275 -1.27720343 -0.12334271
H 2.12536052 0.16815030 -1.03367714
H -2.59348525 0.24358272 -0.24204922
H -1.85666418 -1.92586523 -0.38651487
H 2.10823814 -0.62205979 0.63012505
