10

O -0.94274914 0.8231799 0.3766698
C -1.3207897 0.28584725 -0.8220031
N -0.7945626 -0.7441008 -1.3098029
C 0.22231373 0.4259357 0.910142
C 1.4850974 -0.23559667 0.8727259
N 0.8391916 0.62732935 1.9760932
H -2.1320393 0.89953715 -1.22038
H -1.2421727 -0.98100674 -2.1909325
H 1.5515221 -1.3061533 1.0561377
H 2.3341887 0.20502843 0.35135004
