10

O 0.77720207 1.5865444 -0.62431353
C -1.0701557 0.12955205 0.4875083
C 0.31912547 0.45642677 -0.022759454
C -0.8693983 -1.1175779 0.061233103
N 0.43233615 -0.88267225 -0.5934144
N 1.275423 -0.4234783 0.58907974
H 0.123353325 1.8877696 -1.266803
H -1.350452 -2.084174 0.14671206
H 2.1804013 -0.21024047 0.16434298
H -1.8178355 0.65785015 1.0584142
