10

O 0.022907104 0.32559356 2.0222595
C -0.025362907 0.11983735 0.6889562
C 0.8910305 -0.28464827 -0.25516185
C 0.14453287 -0.27889404 -1.4607993
N -1.1078053 0.09290122 -1.2778409
N -1.1926445 0.33332524 0.049659535
H 0.91470283 0.13123773 2.3348103
H 1.9284703 -0.5425001 -0.10211815
H 0.48721257 -0.5346595 -2.454579
H -2.0630436 0.63780683 0.4548138
