10

O -0.70751257 1.53001475 1.47291368
C -0.90177368 -0.53329735 0.15829121
C -0.02818455 -1.09512633 -0.74406570
C -0.23407353 0.63969764 0.58000133
N 0.94067400 0.79643682 -0.00024662
N 1.04659258 -0.27713182 -0.80695217
H -0.08913596 -1.99783416 -1.33279904
H 1.87497094 -0.38176702 -1.36851561
H -0.03387883 2.21709973 1.56754096
H -1.86767860 -0.89809190 0.47383229
