9

O 0.28500667 -1.1280348 -1.6975635
C -0.73343354 -0.35197437 0.3841024
N 0.7583953 1.273326 0.71477485
N -0.32489982 0.6718694 1.1832812
N 1.0857414 0.6682074 -0.39090347
C 0.19984837 -0.32557654 -0.62219286
H 1.0566179 -0.8366619 -2.2038808
H -1.591691 -0.9690593 0.5888419
H -0.7355854 0.9979042 2.0435407
