10

O 0.87974157 -1.27868093 -0.12122980
C 1.25303461 -0.55917895 0.90951964
C -0.22858926 -0.76679554 -0.91252851
C -0.62197462 0.52081179 -0.21517774
O -1.51803519 1.25856540 -0.53180005
C 0.35295028 0.65306804 0.94481206
H 0.12145051 -0.60443450 -1.93512147
H 0.95508872 1.56746217 0.86881835
H -1.03146735 -1.50865710 -0.91760632
H -0.16219949 0.71783949 1.91031332
