11

C 0.3076557 -0.94306695 -0.23438378
C -0.89290845 1.270428 0.27022022
C 0.33884692 0.49688292 -0.10024935
O 0.29040384 -0.24049939 -1.3902141
C -0.30858627 -2.1945555 0.17243743
N 0.9724674 -2.4049387 0.1590529
H -0.95637584 2.1781719 -0.3387822
H 1.5830655 -1.3863391 -0.009359381
H -0.84425914 1.5615774 1.3241553
H -1.7880564 0.66776884 0.106076024
H 1.2977465 0.9945711 0.04104692
