17

C -2.36761081 -0.25786151 0.55535246
N -0.51203592 0.04021792 -1.26506631
C -0.13108141 0.04227021 -0.04898388
O -1.00818086 -0.13480856 0.95480201
N 1.14661020 0.24314644 0.43094832
C 1.52602327 -0.06142270 1.79660392
C 0.48883360 0.26746584 -2.28734265
H 1.55608330 -1.13732176 2.00903285
H -2.92882228 -0.38943310 1.48265860
H -2.51011798 -1.11764380 -0.10527685
H -2.70553807 0.64146697 0.03186516
H 2.51544377 0.36496838 1.98187569
H 0.81658723 0.40373963 2.48380221
H 1.86450064 0.11740635 -0.26044602
H -0.00853526 0.26617378 -3.26083090
H 1.00217668 1.23529385 -2.18054327
H 1.25566402 -0.52365776 -2.31845163
