17

C -0.15315138 -0.25212678 0.030962773
N -0.051582996 -0.23629469 1.3905396
C -0.36775106 -0.44948575 -2.3590465
O -0.775073 -1.1889377 -0.5676065
N 0.37265623 0.6377753 -0.7572574
C -0.79007524 -1.1764157 2.209013
C 1.2468716 1.6997014 -0.33627307
H -0.31738108 -1.2437059 3.1909614
H 1.7426862 2.1233783 -1.2178781
H 0.7078502 2.5243988 0.15521081
H 2.0380964 1.3482913 0.34140757
H -0.75136644 -2.1575942 1.7302495
H -0.56716496 -1.4907454 -2.6046777
H -1.8446926 -0.9015982 2.3397415
H 0.5395811 -0.09146013 -2.8377821
H 0.18901892 0.65056807 1.8003368
H -1.2185217 0.20425183 -2.5079021
