17

C -2.4837508 -0.9256568 0.59410954
N -1.3260919 -0.4227236 -0.1186883
C -0.26301798 0.070085414 0.6271111
O -0.3455723 0.21825816 1.8389075
N 0.85741526 0.4168188 -0.09199007
C 2.0684514 0.760083 0.62493
C 0.9352075 0.34565866 -1.5373232
H -2.2668889 -1.8311127 1.1765093
H -2.8347719 -0.15978296 1.2909441
H -3.2770393 -1.1397102 -0.12417844
H -1.0899324 -0.922688 -0.9619052
H 2.8571486 0.012364443 0.46183684
H 1.8337207 0.8023862 1.6883185
H 2.4482074 1.736787 0.30086333
H -0.020962454 0.6359059 -1.983326
H 1.692713 1.0558145 -1.8833338
H 1.2151642 -0.65248764 -1.9027855
