17

C -0.055798627 0.13265845 -0.025627373
N 0.879787 -0.754847 0.4644702
C -2.0235555 1.2913275 0.46710396
O -1.0582143 0.31995904 0.8509157
N -0.028056286 0.7542943 -1.1377363
C 1.1009791 0.5206784 -2.0147386
C 0.6170633 -1.6231072 1.5953249
H 1.4942656 -1.1262468 -0.2381546
H 2.0663455 0.7777277 -1.5525572
H -1.561663 2.275221 0.3420663
H -2.7482808 1.3144069 1.2834413
H -0.103191994 -2.4200761 1.3724767
H 0.22704372 -1.0312672 2.4257026
H 0.98371893 1.1507769 -2.900336
H -2.511336 1.0155221 -0.47202677
H 1.5617695 -2.075482 1.9083347
H 1.1591247 -0.52154636 -2.3686593
