9

C 0.7760907 0.11966174 -1.6535761
C 0.15088527 0.02504717 -0.33464545
C -0.35015917 -0.04229113 0.75907177
C -0.97288847 -0.15027487 2.0667672
O -0.6582651 0.51460415 3.0260777
H 0.8162965 1.1614671 -1.984787
H 0.21862571 -0.45948565 -2.3961453
H 1.8001583 -0.26322907 -1.6139104
H -1.7807437 -0.9054994 2.1311479
