9

C 1.2376702 -0.21283817 -1.4441661
C 0.39345828 0.19951804 -0.54811436
C -1.0445013 -0.27399102 1.3738208
C -0.46106535 0.6277348 0.35332793
O -0.8064888 -1.4547228 1.4791877
H 2.3064196 -0.20199059 -1.2499412
H -1.7483222 0.2345596 2.066281
H 0.89117825 -0.5899277 -2.4024403
H -0.7683486 1.6716577 0.37204504
