9

C 0.20143078 -1.1653663 0.70704705
C -0.26572594 1.2624505 -0.9322079
C 1.3142749 -0.646016 -0.15749356
C 0.39419255 0.32198963 0.009050167
O 0.34105408 1.945769 -1.7143515
H -0.46351585 0.095814735 0.86531633
H -1.3738745 1.2916371 -0.8560204
H -0.4400324 -1.9366289 0.2845553
H 0.2921962 -1.1696496 1.7941046
