11

O -2.02137321 -0.40865250 0.49931059
C -1.39508757 -0.41979319 -0.54153824
C 0.87212290 0.08942283 0.35289620
O 0.43960790 0.29842107 1.61469753
C -0.14239122 0.39974552 -0.73329832
N 2.03026629 -0.31262495 0.04451657
H -1.72159189 -1.05475789 -1.38736544
H -0.42732693 1.45734432 -0.67299736
H 2.58408241 -0.44810726 0.88949996
H -0.52929870 0.19640604 1.64247111
H 0.31098977 0.20259590 -1.70819260
