11

N 1.5095472 -0.7056421 0.14162879
C -0.5693658 0.10526241 1.2124815
C 0.26321912 -0.13707343 0.17764531
N -1.7216924 0.78855747 0.7565457
N -1.6801372 0.99415976 -0.48215586
C -0.4259742 0.451116 -1.0142981
H 1.7875954 -1.2429562 0.9498715
H -0.4686894 -0.13547672 2.262135
H 1.8145075 -1.1009772 -0.7345002
H -0.6570467 -0.28103283 -1.7952884
H 0.14803635 1.2640629 -1.4740651
