11

N -0.7317381 -0.75794786 1.559961
C -0.19549994 -0.13084807 0.4211857
C -0.1297478 -0.6126093 -0.8690917
N 0.4035308 0.39485505 -1.6168562
N 0.6921774 1.483393 -0.90811145
C 0.3316599 1.1789476 0.3311441
H -0.21847129 -0.5331298 2.402736
H -0.77389365 -1.7622015 1.4622086
H -0.4173555 -1.5593208 -1.3011962
H 0.586459 0.3931307 -2.6061723
H 0.45287907 1.9057308 1.1241927
