11

N -0.97736603 -1.7071117 0.5960622
C -0.34697273 -0.5386345 0.15397644
C 0.96688515 -0.16121215 0.2688709
N 1.0406936 1.0520121 -0.39980268
C -0.1958441 1.3238212 -0.87581176
N -1.0609167 0.3908899 -0.556994
H -1.9798076 -1.6020607 0.5133479
H -0.728505 -1.9691622 1.5400921
H 1.8290725 -0.62062186 0.7245477
H 1.8654262 1.6155239 -0.51831746
H -0.41266534 2.2165558 -1.4459713
