11

N -1.5463068 0.76721764 -0.49632868
C -0.9589429 0.9460699 0.8386608
C 0.27601773 0.11476325 0.81643957
N 1.1365027 -1.3320428 -1.0316966
C 0.30085248 -0.43797886 -0.40538147
N -0.8335409 -0.0010818377 -1.1717377
H 2.0870047 -1.3628184 -0.6984124
H -0.7920034 2.0203753 0.9819141
H 1.0610492 -1.3332465 -2.0374432
H 0.9783927 -0.015157044 1.6281179
H -1.7090254 0.63389915 1.5758674
