12

C -0.35183945 -1.1042563 0.98005164
C -0.25875145 -0.62868124 -0.46737581
N -0.26295003 0.8208152 -0.5833668
C 0.87811506 1.5490278 -0.49575984
O 1.9955953 1.0807972 -0.40851608
H -0.34717762 -2.1970854 1.0258424
H -1.2738883 -0.7473873 1.4544328
H 0.502621 -0.726576 1.5504051
H -1.093455 -1.0159163 -1.0606768
H 0.6712892 -0.98137337 -0.9226904
H -1.1429566 1.3121818 -0.5381349
H 0.6833979 2.6384542 -0.5342116
