11

C -1.099713 0.3826748 -1.6351204
N -2.1496105 0.18238972 -1.1199149
C -0.63549435 -0.8554938 -0.110578716
C 1.2424594 0.6028222 0.36135042
N 0.06353417 -0.13740747 0.7983425
H -0.034464646 -1.4375815 -0.803863
H 1.7012753 1.094426 1.2212001
H 1.9618111 -0.097732514 -0.07331662
H -1.5117457 -1.3683357 0.26160154
H 0.9644331 1.334151 -0.40680903
H -0.50248516 0.30008718 1.5071077
