11

C 1.3813983 0.007654608 0.020385081
N 0.23959655 -0.62348473 -0.63090175
C -0.99662733 -0.5009832 0.11073164
C -1.4271913 0.9014754 0.3420465
N -1.7104964 2.013012 0.4737049
H 1.2491046 1.0838213 0.2082028
H 2.266857 -0.13620402 -0.605102
H 1.565544 -0.48809323 0.9802916
H 0.11501835 -0.24214348 -1.5623134
H -1.7975647 -1.0235277 -0.4219198
H -0.8856389 -0.99152637 1.0848745
