13

C 0.06903644 -1.18652942 -0.25048293
C 1.50168347 -0.66241239 -0.27031365
O -0.82421485 -0.34620966 0.50239645
C -0.89032821 0.90253686 0.04416303
O 1.66066963 0.42697341 -1.13279269
N -1.79431703 1.55174073 0.78368612
H 2.15510744 -1.46660424 -0.62323193
H -0.31057053 -1.26545586 -1.27335142
H 0.01630722 -2.16228038 0.24142367
H 0.91051603 1.01814103 -0.91486122
H -2.28045814 1.11006661 1.55802199
H -2.00523855 2.51059493 0.56605334
H 1.79180705 -0.43056169 0.76928929
