11

O 1.2678969 -0.5712209 1.9465576
C -0.025061576 -0.62393373 -1.2310648
N 0.9530041 -1.0145909 -0.37258515
C 0.7059212 -0.22751519 0.76762813
O -1.9013216 0.918256 -1.0900116
C -0.83713317 0.301404 -0.5659322
N -0.39733797 0.5485622 0.66932213
H -0.045786478 -0.93847036 -2.264777
H 1.6460276 0.08312167 -0.064125456
H -2.2709956 1.4902258 -0.40238813
H 0.90478635 0.034161314 2.6073759
