11

N -0.86317945 -1.9606721 -1.278103
C -1.416382 0.0971894 -0.11915243
C -0.4785187 -0.9549558 -0.6000284
C -0.46744493 1.0820898 0.43244296
C 0.9114344 0.4273091 0.5813615
O 0.82424355 -0.73581207 -0.23814586
H -0.06725937 -2.5540612 -1.5121647
H -0.83357185 1.6354967 1.3011416
H 1.7452608 1.036924 0.22545838
H 1.1111051 0.11752025 1.6131219
H -0.46568754 1.8089721 -0.40593177
