9

O 0.36075932 1.4991616 -0.8931604
C -0.050139647 0.35904035 -0.34163034
N -0.79519624 0.3411241 0.74873793
N -0.54583067 -0.4978175 1.6616124
N 1.1330396 -1.4876467 -0.07930044
C 0.53311265 -0.8812003 -0.9719729
H 0.282499 2.227549 -0.25828212
H -1.4273876 -0.5683816 2.195152
H 0.5091436 -0.99182886 -2.0611563
