10

O 1.0569217 0.75640434 -0.38522148
C 0.26975998 0.55024415 0.8212601
C 0.7310437 -0.6611908 -0.28246585
O 0.9758711 -0.6657148 1.1379471
C -0.74972945 -0.26917073 -0.014207615
O -1.4886351 0.34155688 -0.9994408
H -0.89125454 0.96833616 -1.4394429
H 1.2487768 -1.3763701 -0.920801
H 0.2099169 1.3490059 1.5589237
H -1.3626714 -0.9931009 0.5234487
