10

O 0.15770301 -0.70362806 -1.3054371
C 0.16684192 0.08062977 0.75289404
C 0.65704006 0.33916676 -0.6783758
O -0.7099105 1.3305473 -0.77665687
C -1.0494342 0.2543604 -0.1429781
O 0.5124543 -1.1363883 1.2949826
H 0.2561194 0.8705055 1.5009313
H 1.5427712 0.8745527 -1.0367457
H -2.0587375 -0.1619201 -0.1466984
H 0.52515227 -1.747826 0.538084
