9

O 0.42805894 1.56629000 -1.19106393
C 0.13544280 0.52417296 -0.39580703
N -0.89539119 -0.84001666 0.76931539
N 0.33789179 -1.28964967 0.84637142
N -1.08539595 0.25140295 0.03531241
C 1.03403005 -0.43298971 0.10511525
H -1.66050493 -1.29579051 1.23997327
H 2.09905600 -0.52645893 -0.03777795
H -0.39318755 2.04303961 -1.37143874
