9

O -0.3715684 1.6050339 -1.1579876
C -0.13020952 0.5357396 -0.3818296
N -0.34426084 -0.981258 1.008869
N -1.0016929 0.04881922 0.48658273
N 0.8699175 -1.1966392 0.55227697
C 1.0441685 -0.23519045 -0.3494926
H 1.9565561 -0.13366315 -0.9157755
H -1.2632433 1.921372 -0.96020705
H -0.7596671 -1.5642139 1.7175634
