9

O 0.44111317 1.6906966 0.7206859
C 0.1597976 0.4630543 0.2668542
N -0.8171969 -1.4694508 -0.13644198
N 0.26027027 -1.4219891 -0.8872257
N -0.9158792 -0.23846564 0.61967444
C 0.9201415 -0.29605523 -0.6241187
H -0.22996946 1.9372072 1.3721873
H -1.6971757 -0.60159993 -0.26511678
H 1.8788987 -0.06339746 -1.0664986
