11

C -0.41071898 0.9159975 -1.1519096
C -0.07333016 -0.33304074 -0.37754405
O -0.05259389 -1.4354098 -0.88015896
C 0.27736682 -0.1849612 1.0934645
O 0.652001 -1.4043031 1.6512705
H 0.518102 1.3351089 -1.5604194
H -0.8667943 1.6823257 -0.5162368
H -1.0705475 0.67756885 -1.98803
H -0.60236263 0.23961158 1.6066746
H 1.0819855 0.5617005 1.1847214
H 0.54689217 -2.054598 0.93816817
