10

N 0.7583705 -1.4356127 -0.4086853
C 0.6693263 -0.1788512 -0.29287708
C -1.7552942 -0.26541293 -0.13293965
N -0.5474647 0.51984733 -0.4827221
C -1.451607 0.6743407 0.6757702
C 1.793911 0.7239845 -0.062129993
N 2.7067516 1.3933811 0.15447648
H -1.5712674 1.3680134 1.4908602
H -2.331332 -1.0536534 -0.5821336
H 1.7286061 -1.7460369 -0.35961914
