10

N 0.42248786 0.02955261 3.01869320
C 0.45947646 -0.11900531 1.87639266
C -1.10950231 1.06303386 -0.81088055
N 0.25832041 0.79631152 -0.31959031
C -0.31298510 0.54747955 -1.66477662
C 0.47910417 -0.37850234 0.43926939
N 0.75235570 -1.49271934 -0.09425096
H -1.99822925 1.54255553 -0.43658716
H 0.04983641 0.20196355 -2.61551162
H 0.99913556 -2.19067004 0.60724195
