11

O 1.5767553 0.49784604 0.8779931
C -0.6975829 0.23592176 -0.9669847
N -0.2602662 -0.6621479 1.092457
C -0.25464207 -0.9855317 -0.31930205
C 0.28624827 0.60406446 0.9251955
C -0.39741382 1.2876933 -0.14711143
H 0.39251062 -1.2353137 1.6175508
H -0.62569326 -1.9594818 -0.6359694
H 1.3733886 -0.41074908 -0.06730701
H -1.0593948 0.28856337 -1.987338
H -0.33390975 2.3391352 -0.3891841
