11

O -1.237386 1.8413815 0.18761902
C 0.03838017 -1.4184499 0.3245754
N -0.89640546 -0.42590317 0.562981
C 0.7830711 0.5417232 -0.5351015
C -0.44346324 0.74820495 0.044600595
C 1.0799364 -0.84763443 -0.349578
H 1.3949221 1.2834148 -1.0294038
H 1.9746197 -1.3518946 -0.6853318
H -0.13126424 -2.4303343 0.65839905
H -1.7764986 -0.53042865 1.0410281
H -0.78591216 2.5899203 -0.21978804
