11

O -1.4737222 1.6300797 1.2695917
C -0.7514786 0.8435901 0.692439
N -0.75613946 0.5627792 -0.6534964
C 0.22410846 -0.42686397 -1.034605
C 0.87429214 -0.7447142 0.28859234
C 0.32344964 -0.025731884 1.2643151
H -1.397105 1.0093676 -1.2867935
H 0.951726 -0.033681925 -1.75672
H -0.236157 -1.3183572 -1.4782232
H 1.67556 -1.4710337 0.37623295
H 0.5654657 -0.025433578 2.3186674
