9

N 0.29837647 0.25810109 -1.40008650
C 0.94669959 0.97238845 -0.27998175
C -0.03478297 -0.07309146 -0.05151596
C -0.73872017 -0.85796810 0.69306172
N -1.50855155 -1.47443527 1.43764342
H 2.00854316 0.75837050 -0.16950408
H 0.65125039 1.99678890 -0.07514831
H -0.43120704 0.83792255 -1.81178784
H -1.19160818 -2.41807640 1.65731935
