10

O 0.7551982 -0.08746309 2.1661072
C -0.77585584 -0.4516885 -0.93277556
N -0.52339506 -0.8768832 0.37429708
C -0.18222824 0.7232435 -1.2686752
C 0.34348193 -0.052746058 1.031675
N 0.6463923 0.92434156 0.038113374
H -1.4149942 -1.0463829 -1.5700283
H -0.9446901 -1.6652743 0.8411165
H 0.9530394 1.8455849 0.32266045
H 1.1430519 0.68726826 -1.0024906
