10

O 2.362453 -0.39600694 0.27693298
C 1.1732078 -0.19627005 0.13612218
N 0.32909945 0.5740284 0.92249894
C -0.9724325 0.55166703 0.4339305
C -0.9751088 -0.22490527 -0.6617243
N 0.326154 -0.68169767 -0.84807885
H 0.6576074 1.060997 1.7372963
H -1.7753184 1.0910245 0.9105987
H -1.7812674 -0.4937436 -1.3268689
H 0.65560555 -1.2850934 -1.5807076
