10

O -0.6712306 1.6275226 -1.3589188
C -0.2384469 -1.0315117 0.8679243
N 1.0415984 0.33289623 -0.2908133
C 1.0851567 -0.86623156 0.7087668
C -0.37532136 0.731008 -0.6105913
N -1.08458 -0.12903056 0.12090275
H 1.5399754 1.1275704 0.10889186
H -0.7398842 -1.7629925 1.4872923
H -2.0928347 -0.11486544 0.11426111
H 1.5355674 0.08563428 -1.1477158
