10

O -1.6861936 -0.5955417 -1.5297159
C -0.8048516 -0.26733193 -0.7778221
C -0.37541273 -0.6193041 0.65953696
C 0.7697056 0.39998895 0.44468153
N 0.24091178 0.6103347 -0.9001772
H -1.108327 -0.35216376 1.4235891
H -0.063232005 -1.6576554 0.78910106
H 0.7242579 1.2869409 1.0826309
H 1.7786635 -0.021595908 0.46402657
H 0.5244781 1.2163281 -1.6558514
