10

O 0.37149691 -0.86809397 -1.65777872
C -0.54575416 -0.40002811 -0.68710728
C -0.27476787 1.32716208 1.02498928
C 0.31335939 -1.53793242 -0.39146091
N -0.21925383 0.87239965 -0.19408864
H -0.39030306 0.62573795 1.84387186
H 1.22111998 -1.42550540 0.20667848
H -0.27066637 2.39827617 1.19652138
H -0.11505875 -2.53801736 -0.39802315
H -0.09017229 1.54600127 -0.94360278
