11

C -0.31160602 0.69565519 -0.10626851
C 0.60480020 0.12695414 0.99610762
N 1.22910764 -1.00997560 -1.31133899
C 0.75248123 -0.26530884 -0.41862416
N -1.70664532 0.34123813 -0.11859951
H -1.82074091 -0.62936200 0.15921185
H 0.17732152 -0.59527821 1.69128648
H -0.13674169 1.74175111 -0.34811256
H -2.06073771 0.40623270 -1.06871670
H 1.95214621 -1.62168024 -0.92154980
H 1.32061493 0.80977370 1.44660462
