12

N 1.501239 0.9056366 0.6959563
C -0.47295713 -0.012644771 -0.2509251
C 0.76390207 0.81513953 -0.5731723
C -1.2198803 -0.7594977 -1.1383337
N -2.113702 -1.1344943 -1.9090105
C 0.8026229 0.29080212 1.5661892
N -0.34956717 -0.33657685 1.1075557
H 1.0619248 0.21956447 2.619989
H -0.73114663 -1.6889198 -1.5568724
H 0.50988364 1.8263519 -0.91774255
H 1.3993131 0.36405987 -1.3442588
H -1.1516318 -0.4894212 1.7006251
