12

N -1.8352928 0.66347533 -0.41556075
C -1.5765747 -0.4628158 -0.9421112
C 1.5941592 -0.13498665 0.51835936
C -0.6511418 1.0574478 0.35595164
N -0.36056882 -1.0593685 -0.6206135
C 0.35856396 -0.056365803 0.10589018
N 2.800337 -0.10653118 0.7862391
H 3.0231323 -0.4981288 1.7003237
H -0.2909079 2.0349324 0.018290367
H -2.2688828 -1.0017575 -1.586863
H -0.91600496 1.1494738 1.415625
H 0.12318117 -1.5853751 -1.3355308
