12

N -0.92531586 2.0806458 1.7889204
C -0.85482985 1.2760267 0.9633215
C -0.76143855 0.22301893 -0.0677793
C 0.39577422 0.47378978 -1.083986
N 1.4857767 -0.41403127 -0.682254
C 1.003948 -1.1968725 0.19642748
N -0.3459505 -1.0547813 0.51028216
H -1.7327139 0.13674249 -0.56229764
H 0.07447284 0.2147082 -2.0973773
H 0.72645485 1.5158747 -1.0895073
H 1.5749168 -1.9909788 0.67043054
H -0.64109486 -1.264143 1.4538198
