10

N -0.3608608 -0.6195804 -1.6717088
C -0.15773728 -1.0041659 -0.35190603
O -0.88497305 0.0059389453 0.590196
C 0.35964862 0.39621487 0.53988487
O 0.08960873 -2.108914 0.04711596
N 0.72890687 1.3226421 1.4064347
H 1.6714622 1.673232 1.3947201
H 0.09101717 1.6486981 2.1249077
H -0.49692646 -1.4264166 -2.2643676
H -1.0401461 0.112351015 -1.8152766
