10

C -0.068693444 -0.4776015 -0.5335652
C 0.09435028 1.0076922 -0.15930839
N -1.1232412 0.9419709 0.694306
C -1.2808791 -0.28605306 0.3571565
N 1.3451241 0.7003328 0.58441895
C 1.2239236 -0.5361371 0.2547749
H 1.9013473 -1.3452853 0.52236086
H 0.13971393 1.8407232 -0.86105704
H -2.082502 -0.9497437 0.6765856
H -0.1491439 -0.89589846 -1.5356722
