10

C -0.3668102 -0.7058385 0.19519679
C 0.3216273 -0.6262143 -1.0893629
N 1.0231826 0.46829632 -1.2237539
C 0.86201036 0.7546455 0.12919551
N -0.18480934 1.5808556 0.47816375
C -0.9389477 0.53615123 0.70561624
H -1.897943 0.6101998 1.215777
H -0.674216 -1.6679039 0.6007357
H 0.2539285 -1.382073 -1.8708951
H 1.6019773 0.4318814 0.8593267
