11

N -0.05665389 0.67627791 -1.30497005
C 0.30015553 -0.26442045 0.67504917
C 0.90599382 0.50188403 -0.39447808
N 0.73540488 -0.71706154 1.78753071
N -1.23928394 0.19859185 -1.11713867
C -1.12508189 -0.46085980 0.18374674
H -1.85009470 -0.02745950 0.88132323
H 0.08957954 1.18345838 -2.17197456
H 1.89900970 0.89459899 -0.53284004
H 1.71291651 -0.46202170 1.92170282
H -1.37194561 -1.52298848 0.07204856
