11

N 1.0038097 -1.590478 0.8443989
C 0.7482219 0.32452154 -0.75044996
C 0.39903834 -0.60191053 0.3068795
N -0.2977117 1.1477772 -0.8703353
N -1.3344967 1.014385 -0.11577463
C -0.9871877 -0.1345291 0.7206429
H -0.3292138 1.9046972 -1.5459038
H 1.922299 -1.7223024 0.423001
H -1.0103259 0.15786307 1.7761351
H 1.6233591 0.42116416 -1.3703247
H -1.737792 -0.921188 0.58173114
