10

C 0.21621808 0.2777921 1.3030514
C -0.13501775 0.55231756 -1.0905496
C -0.01519658 -0.3661669 0.026750976
C 0.4097997 0.77365255 2.3803663
N -0.35004005 0.054139543 -2.276977
N -0.53662765 -0.38379312 -3.29999
N -0.11052426 -1.6342003 -0.12953389
H -0.0026724334 -2.1070833 0.7687081
H -0.058789164 1.626589 -1.0241036
H 0.5828501 1.206753 3.3422773
