12

C -2.144502 -0.8659282 0.42121118
N 1.1184628 0.32637253 -0.6453355
C 1.9201629 1.1753095 0.08568487
N -1.070162 -0.24714936 -0.038921706
C 0.22415015 -0.57873935 -0.052048817
O 2.79056 1.873579 -0.38824883
H 1.3578911 0.25830284 -1.6269149
H 1.6591727 1.1459624 1.1586086
H 0.5241898 -1.5491999 0.3151358
H -1.2409121 0.665175 -0.45713833
H -2.0463042 -1.849048 0.85946256
H -3.0927086 -0.3546367 0.36850515
