12

C 0.18530545 -0.052728605 0.02390392
N 1.3194393 0.5681889 -0.3975199
C -1.889832 -1.1636246 -0.70489407
N -0.859011 -0.2834132 -0.8878866
C 1.7698814 1.0963855 0.78257793
O -2.7828133 -1.3424381 -1.5051286
H 2.034021 0.43586606 1.6199696
H 0.25028273 -0.8523223 0.76516527
H 2.3584855 2.0136905 0.7405965
H -1.8307246 -1.7158114 0.25378928
H -0.8946642 0.29475677 -1.7193117
H 0.33963025 1.0014504 1.0287383
