11

C -0.8790652 -0.8007086 -1.1924202
C -0.12654594 -0.06352658 -0.14195429
C -0.2637894 1.1330057 0.4690495
N 0.758718 1.3037089 1.3989588
C 1.4459169 0.22014739 1.3011194
O 0.98512447 -0.6627195 0.3957222
H -1.2570231 -1.7538884 -0.813942
H -1.7302433 -0.19694111 -1.5188162
H -0.24818085 -1.0065079 -2.0620296
H -1.0187263 1.8894719 0.31441444
H 2.333815 -0.062042043 1.8498981
