11

C 0.36112148 -1.6646448 -0.6626299
C -1.0059792 0.9600416 0.9067387
C 0.0963347 0.7783868 0.00066682854
N 1.3636189 -0.81302404 -0.40791398
C 1.2016319 0.58718413 -0.60929745
O -0.84767383 -1.4349766 -0.6886408
H -0.720734 0.68884313 1.9295515
H 0.745583 -2.6838944 -0.8425393
H -1.2770623 2.0236151 0.89719445
H 1.9409688 1.2012043 -1.1079105
H -1.8578094 0.35726526 0.5847802
