12

N -0.77687776 0.92474808 0.58410070
C -1.03616758 -1.22198891 -0.48872786
N 1.69333361 0.90717047 0.94259782
C -0.52321562 -0.55479766 0.73692523
C 0.52473122 0.42423929 0.36593149
C -0.81999062 -0.30864495 -1.42775908
N -0.22357855 0.86031981 -0.82916832
H -1.01399614 -0.30576425 -2.49134121
H -1.48752435 -2.20134100 -0.55967417
H -0.60115825 -0.95033502 1.74591329
H 1.74192859 1.91879323 0.90497579
H 2.52251551 0.50760081 0.51622641
