9

O -1.319538 -0.6620225 0.8834138
C -0.5978667 0.29720062 0.15521218
C 0.8619358 0.19507232 0.33865204
C 2.0451105 0.07833334 0.50690305
C -0.9296984 0.23374414 -1.2937882
N -1.2072965 0.15157929 -2.4110892
H -1.0057541 -1.5391456 0.63389325
H -0.94662917 1.2651286 0.52998024
H 3.0997367 -0.019890172 0.6568232
