9

O 0.80277616 0.9852657 -2.0574732
C 0.7235059 -1.3965198 2.8130004
C 0.04016725 1.125795 -0.9529268
C -0.2942381 0.19336006 -0.09921199
C -0.6479005 -0.7397634 0.7485777
N 0.11186809 -1.0714486 1.8624619
H -1.5589708 -1.3220359 0.64137536
H 1.1178799 0.07320692 -2.1241598
H -0.29508778 2.15214 -0.8316438
