10

N -0.15730838 -0.74893606 -0.8463614
C 1.0609971 -0.28587845 -0.41970217
C 0.8360368 0.59512633 0.6097555
C -0.57198745 0.6641151 0.8100159
C -1.1574692 -0.17644052 -0.10399839
H -0.2965212 -1.4108505 -1.5897481
H 1.9775952 -0.622089 -0.8819948
H 1.5915211 1.1338952 1.1639739
H -1.0876892 1.2657394 1.5456808
H -2.195175 -0.41468135 -0.28762126
