10

N -0.5285008 -0.2201753 -1.2067157
C -0.4552483 0.0718906 1.0530436
C 0.8704081 -0.0787936 0.6441179
C 0.8404137 -0.23875026 -0.74925447
C -1.2516268 0.021516262 -0.09075471
H 1.7570579 -0.07822811 1.2642716
H 1.6052407 -0.6152619 -1.4177885
H -0.8026186 0.23403409 2.0662293
H -2.3201199 0.1777882 -0.16859718
H 0.28499413 0.7259799 -1.3945521
