9

N -0.7466824 -1.4261174 0.96626407
C 0.5350677 0.74784714 0.39498645
C -1.0993452 -1.5795776 -0.17276931
C 0.1935564 -0.48593017 -0.36290547
N -0.19676965 0.7933403 -0.85991055
H 0.0069772545 0.9261676 1.3263677
H -1.1916271 0.94700956 -0.73281026
H 0.9446332 -1.0459235 -0.9066897
H 1.5541899 1.1231841 0.3474671
