10

O 1.71937438 -0.69826447 -2.10861657
C -0.63602836 0.90416483 1.24071687
C 0.61026509 -0.99626149 -1.70128106
C -0.23107582 -0.11026966 -0.91701491
N 0.05787289 -0.01506778 0.34816532
H 0.80831534 -0.55274330 0.78119045
H 0.10491424 -1.93983516 -2.00048026
H -1.37777071 1.43135538 0.64044236
H -1.12963955 0.35622347 2.05036257
H 0.07377265 1.62069786 1.66651529
