13

C -0.82308681 -0.75049272 0.65355625
C 0.17504311 0.15134612 -0.01903190
N 1.06145635 -0.42835162 -0.77284485
O 1.16473720 -1.67715226 -1.01067523
C 0.16900573 1.63544817 0.14018772
O -1.39051318 -1.68537206 -0.22528992
H 0.22591045 1.91508280 1.19928380
H -1.63394675 -0.13879517 1.06074236
H -0.31709601 -1.23959756 1.50340354
H 1.00928109 2.10463852 -0.38106714
H -0.76073376 2.05876741 -0.25966808
H -0.63177881 -2.11880144 -0.65069004
H 1.75172130 0.17327965 -1.23790669
