13

C -0.43075383 -1.0682262 0.48420274
C 0.7378382 0.101073824 -1.5653054
N 0.3268054 1.1950408 0.52789456
O -1.7029011 -0.7653053 0.9925855
C 0.22430849 0.13593082 -0.16214928
O -0.18289466 1.2910558 1.8272002
H 0.28269908 2.1863675 1.0776718
H -0.089004375 -0.089986496 -2.2593133
H 1.4642787 -0.7118806 -1.6835588
H -1.5497344 -0.021467922 1.599883
H -0.548436 -1.8514211 -0.27074778
H 1.2171803 1.0453862 -1.8328582
H 0.250614 -1.4465674 1.2644953
