10

O 0.798119 1.9302398 -0.7607009
C 0.35550904 0.88844556 -0.37715954
C -0.9294065 0.44333124 0.326249
N -0.50838405 -0.9548675 0.09437874
C 0.8345821 -0.5656407 -0.38786212
H -0.9564773 0.7638955 1.3764722
H -1.8717328 0.7288896 -0.15340285
H -0.4976588 -1.5240381 0.9319589
H 1.6628785 -0.7330326 0.314163
H 1.1125708 -0.9772225 -1.3640965
