9

O -0.105891995 1.3960956 -0.27485746
C 0.54403806 -1.6181307 -1.6687758
C -0.11851741 0.62808925 1.6912086
N -0.11135337 1.7700342 1.0684783
C -0.10136421 0.07114604 -0.26445663
N -0.116927266 -0.49160156 0.89720833
O -0.14465812 -0.4987613 -1.4951367
H -0.12554559 0.58869743 2.7718463
H 0.28021988 -1.8455693 -2.725515
