9

O 1.0049899 -0.94754004 -1.5009949
C 0.30957332 -0.349487 -0.5199007
C -0.9412347 -0.6227288 -0.07631199
O -1.1975659 0.26609415 0.94150555
C -0.08893954 1.0063663 1.03728
N 0.84568167 0.6943728 0.19925283
H 1.8608183 -0.49987254 -1.5473647
H -1.7160847 -1.3282565 -0.32374752
H -0.07723811 1.7810515 1.7902813
