10

N -1.2277246 -0.7075245 -0.29424253
C -0.6279577 -0.0072779106 0.69729114
O -1.1189517 0.19903708 1.7869616
C 0.76619375 0.5576267 0.38063085
C 1.3056947 0.19200729 -0.9272319
N 1.6832666 -0.12464253 -1.9714699
H -2.1420524 -1.093568 -0.115525715
H -0.7881303 -0.881567 -1.1842544
H 0.7058889 1.647734 0.45976317
H 1.443773 0.2181749 1.168078
