10

N 1.7067297 -1.0130433 1.0901963
C -0.87513 0.17673677 -0.8105005
O 0.6849449 1.0215063 1.2652293
C -1.8722581 0.8496134 -1.3150479
C 0.8223948 -0.05493364 0.7364414
N 0.052830406 -0.518002 -0.40181613
H -1.6833693 1.6124713 -2.0594459
H 1.7333806 -1.882648 0.5847025
H 2.3143702 -0.8618866 1.8773935
H -2.8838928 0.6701859 -0.9671521
