10

N 0.6151852 -0.76513803 -1.1155478
C -0.21072786 -0.7890016 -0.028277442
O -0.55328804 -1.6522696 0.70116323
C -0.8227684 0.89174587 0.26480645
C 0.23085457 1.1064545 1.0999079
N -1.6471019 0.5101613 -0.5163383
H 0.122925855 0.86123633 2.1498086
H 1.102642 1.643017 0.74578255
H 0.35535762 -0.10875843 -1.839311
H 0.8069212 -1.6974474 -1.4619942
