10

N 0.24309358 -0.01240079 -0.61100334
C -2.01648066 -1.14463252 -0.76168664
O 0.04812934 0.63623000 1.64509109
C 0.70764855 0.56164910 0.63677359
C -0.85948723 -0.55496071 -0.63820047
N 1.97658645 0.99678016 0.47670349
H -2.10279625 -2.21524864 -0.61015701
H -2.89793117 -0.55673049 -0.98344267
H 2.43995394 0.87783777 -0.40850262
H 2.46128370 1.41147614 1.25442489
