11

N -0.26555142 1.0000429 -1.630309
C -0.06797822 -0.1577964 0.08875622
C -0.30081323 -1.2473545 1.0848278
C 0.8351416 0.9194701 0.120929725
N 0.6892347 1.6399647 -0.9852741
N -0.7579972 -0.07628296 -1.0473835
H 0.60703355 -1.836771 1.2489703
H 1.5594146 1.1954973 0.87352043
H -0.61283034 -0.8388947 2.0523717
H -0.6007484 1.3156738 -2.5281334
H -1.0849057 -1.9135491 0.7217241
