11

N -0.5738622 0.48008615 0.6694541
C 0.7200008 -1.1816276 0.07170403
C -0.30386606 0.8499732 -1.5096376
C 0.0062489193 -0.039942462 -0.40763882
N -0.10206942 -0.16992448 1.7457341
N 0.6016599 -1.2467523 1.3808875
H 1.3133367 -1.9083233 -0.46282136
H -0.97297966 1.3849677 -0.016666248
H -0.5816377 -0.15766333 2.627795
H -0.579747 0.38358656 -2.4541504
H 0.47291565 1.6056195 -1.6446605
