10

O 2.06441696 -0.79123062 0.22528099
C 0.95465797 -0.32638660 0.15936947
N 0.28165213 0.54943096 0.91105059
C -1.04793975 0.79121755 0.39753962
C -1.37811447 0.11279743 -0.71374268
N -0.04316462 -0.66909849 -0.91448615
H 0.70168598 0.97028143 1.72460745
H -1.65954935 1.49344319 0.94822774
H -0.22314373 -1.67334367 -0.90600031
H 0.34949882 -0.45711112 -1.83184661
