10

O -0.4214371 -1.4170582 2.178007
C -0.6109591 -0.11353219 -0.055339523
N -0.35888684 0.75956976 1.1277722
C -0.43449217 -0.5643378 1.3440163
C 0.47068086 -0.13037804 -1.0795
N 1.5368121 0.5307351 -0.91050917
H 0.24365792 -0.7491235 -1.9568869
H 2.1733172 0.3838415 -1.6910625
H -1.6263658 -0.16862237 -0.44661555
H -0.972327 1.4689059 1.4901183
