11

C -0.52065593 1.5086724 0.43695074
N -0.18500063 1.4731013 -0.738839
C 0.31572026 -0.72034407 -0.92674255
C -0.47415146 0.07940203 1.157703
N 0.42034763 -0.75021905 0.4399237
H -0.64942986 -1.0257765 -1.3295166
H 0.23845114 1.3356938 -1.6313676
H 1.3769683 -0.68201625 0.7677406
H -1.5078278 -0.27030352 1.0690451
H 1.1880754 -1.10421 -1.4568427
H -0.20249704 0.15600008 2.2119453
