11

C -1.44592551 0.38281149 0.07578949
N -0.61025763 0.20505114 1.06628932
C 0.81692939 -0.05375859 0.71446890
C -0.54861575 0.18191427 -1.13393260
N 0.74958912 -0.37952201 -0.68662636
H -1.00329150 -0.45322150 -1.90108979
H -0.89017307 0.33271271 2.03052726
H 1.24605583 -0.86518190 1.31522821
H -0.40939377 1.17398774 -1.58885609
H 1.39028898 0.86401914 0.89804903
H 0.70479379 -1.38881238 -0.78984751
