11

C -1.1430672 -0.31371835 0.70699334
N -0.058409657 0.6587424 0.63939315
C 1.1030777 0.1848615 -0.08157755
C 0.8321292 -0.16945413 -1.498044
N 0.5523015 -0.4161701 -2.5917141
H -1.5088832 -0.6413338 -0.2776243
H -1.9751067 0.12517226 1.2639017
H -0.79939556 -1.1960926 1.2581863
H -0.390416 1.5177523 0.21622576
H 1.8840812 0.95139253 -0.06098419
H 1.5036886 -0.7011519 0.42524374
