12

N -0.50501269 -1.88872765 0.50155165
C 0.46910260 -1.08060318 0.24228136
C -0.00573273 0.30759275 0.16833165
N 0.53691654 1.17896379 -0.90568072
C 0.79751522 1.49947296 0.57847245
N -1.42631887 0.21125841 0.27074501
C -1.63595612 -1.03714804 0.48174884
H 1.50632396 -1.40768955 0.20601865
H 1.84056947 1.18255958 0.73536123
H 1.20403497 0.75074174 -1.54545675
H -0.16209627 1.75114497 -1.36188731
H -2.61934547 -1.46756549 0.62851410
