12

N -0.371383 -0.12786223 1.6739159
C 1.6334349 0.12079406 -0.92039084
C -0.24577427 1.0137577 -0.48487863
N 1.1976745 -0.7592467 -0.105787866
C -1.0497437 -1.4160867 -0.19322303
N 0.7919504 1.247473 -1.1992683
C -0.16064967 -0.29552415 0.24835517
H 2.6117177 0.062958926 -1.3885788
H -0.66290265 -1.0183866 2.0698335
H -1.0719382 0.5741423 1.8692299
H -1.0931534 1.6963081 -0.454662
H -1.5792328 -1.0983276 -1.1145449
