12

N -0.3770103 -0.032359894 -1.4238428
C -0.51376235 -1.7261683 0.88548845
C 0.1762221 -0.46496633 0.9468906
N 0.71842265 -1.8381838 0.6528327
C 0.122374065 0.51344204 -0.20239092
N 1.2447246 1.5105203 -0.2357199
C 0.10091824 1.9238462 0.07895327
H 0.045696743 -0.93629223 -1.6230026
H -1.3949562 -2.3431242 0.92132944
H 0.4844122 -0.03107164 1.9007534
H -0.18180609 0.5858182 -2.2046795
H -0.42523575 2.8385398 0.3033878
