14

C 0.5155036 -0.8070341 -1.7825856
N -1.0352101 -0.36711553 -1.0656592
C 0.21150307 0.701091 2.2589948
O 0.88670623 -0.38256204 -0.22802687
N 0.99321085 -0.055789817 -2.6777966
C -0.34425074 -0.049690597 -0.0034594997
N -0.72192824 0.5035538 1.1612376
H 1.2047013 0.87688947 1.8418207
H -1.9026549 0.06471522 -1.3545209
H 0.48028338 -1.8956095 -1.7374734
H -1.7098979 0.6146175 1.3199555
H 1.2676507 -0.6044188 -3.4849923
H -0.09794272 1.574002 2.8365571
H 0.25232565 -0.17264864 2.9159486
