12

O -0.87661564 -0.14407928 1.66102631
C -0.12697921 -0.75572010 -0.60532424
C 1.51812191 0.95739160 -0.35938390
O 0.72475989 0.26768518 -1.17305446
C -1.22863031 -0.22774533 0.30815741
O 1.55402136 0.89198351 0.84587696
H 0.48936732 -1.48030969 -0.06521205
H -0.01196438 0.29777724 1.70407148
H -2.06528278 -0.93218884 0.24571576
H 2.16055773 1.61288680 -0.96097266
H -0.55449896 -1.22027159 -1.49681492
H -1.58285677 0.73259036 -0.10408558
