12

O -0.66429245 -1.4529523 0.8788838
C -0.05981319 -0.22443733 1.1999344
C 0.4473014 0.4531714 -0.07229725
O 1.3284292 -0.4242908 -0.7226769
C -0.7092263 0.7763173 -0.9969644
O -0.72621953 0.37951383 -2.1366484
H -0.028889975 -1.9145582 0.3110978
H 0.78528696 -0.34531468 1.8919426
H -0.81648576 0.39684364 1.6913894
H 0.9410738 1.4040048 0.189906
H 1.0264764 -0.4550513 -1.6470495
H -1.5236404 1.4067535 -0.58751744
