14

C -2.3949168 -0.07562463 0.97125953
N -1.3515904 0.1368978 -0.013172151
C -0.033696715 0.037939392 0.3443592
O 0.35530102 -0.074799955 1.4913996
N 0.84273976 0.10704299 -0.7342658
C 2.2156196 0.0043387925 -0.59087324
N 2.9650462 0.10826898 -1.6123434
H -2.038904 0.29607788 1.9317487
H -2.6491718 -1.1381673 1.0822464
H -3.289104 0.4783325 0.6780816
H -1.5922942 -0.021120716 -0.97838557
H 0.5144744 0.29969603 -1.6712005
H 2.5187147 -0.16821362 0.44197807
H 3.937782 0.009331797 -1.3408328
