14

C -0.53336441 0.77362016 1.97893701
N -0.73233783 0.45239512 0.64264385
C 0.19321493 -0.09909776 -0.19391982
O 1.39379678 -0.36303938 0.27276892
N -0.05214678 -0.34503776 -1.43861512
C 0.96888141 -0.92922991 -2.30573466
N -1.48491848 1.28535020 2.64854296
H -1.18147155 1.47257588 3.59979981
H 0.94440190 -2.01612462 -2.17381403
H -1.64763288 0.67855688 0.28253427
H -0.98191850 -0.15177083 -1.79883533
H 0.73716114 -0.63484526 -3.32852070
H 0.47351106 0.53541921 2.33049993
H 1.90282298 -0.65877199 -0.51628746
