13

C -0.5934356 -0.23926315 0.47536492
N 0.64381874 0.44328287 0.46413934
C 0.65004414 2.246322 0.47206876
O -1.5678105 0.21713455 1.0147443
C -0.57388335 -1.5799994 -0.22710975
O 0.34793794 -1.6272144 -1.3003132
H -0.24048038 -2.3249369 0.5064077
H 0.95500624 0.98473907 1.309474
H 1.0419021 2.4071684 -0.53926516
H -1.5981027 -1.8301977 -0.5264773
H -0.4343162 2.392184 0.47384474
H 1.3759308 0.0112511525 -0.09774005
H -0.006611287 -1.1004707 -2.0251384
