13

C 0.53815594 -0.82779641 -1.07505736
N -0.07432230 1.10938219 0.36652570
C -0.43016366 0.29866986 -0.79427793
O -1.42786679 0.54606611 -1.41022818
C -0.69283804 0.58776213 1.66996666
O 1.44488641 -1.05438802 -0.01000820
H -0.02739872 -1.72143340 -1.36061627
H 1.13721960 -0.52442296 -1.94411487
H 1.03130679 -1.64348894 0.62862523
H -0.26344815 -0.41699123 1.78089331
H -0.41265388 2.05932182 0.20875091
H 0.93632648 1.09636233 0.51545909
H -1.75920373 0.49095667 1.42408182
