13

C 0.58418524 -1.5842601 -1.1673902
N 0.22974844 -0.64380294 -0.12623605
C -0.05088491 0.6612057 -0.37886193
O -0.070582524 1.1713128 -1.4844049
C -0.3369769 1.4765846 0.8784178
O -0.5661787 0.6920571 2.0373943
H -0.112603925 -2.4277928 -1.1841036
H 0.53426826 -1.055238 -2.1203673
H 1.6010422 -1.963083 -1.0221077
H 0.2686878 -0.9130025 0.8465189
H -1.1676302 2.1568277 0.6532958
H 0.54799557 2.0891843 1.0833818
H -1.4610704 0.3400073 1.984463
