11

N 1.27271991 -0.01638917 1.36592299
C 0.29411877 0.01035288 0.35505837
C -1.87133320 0.33369668 -0.40613756
N -0.99272761 0.07147878 -1.40957579
C 0.31943232 -0.13799568 -0.99089714
N -1.02731156 0.29246116 0.66843138
H 2.19118690 0.19096717 1.00011176
H 1.30326488 -0.90963470 1.84153304
H -1.33232205 0.49889521 1.60669243
H -1.29065920 0.03482978 -2.36954832
H 1.13363091 -0.36866207 -1.66159050
