11

N 1.0401375 0.13210934 1.7671509
C 0.3729681 0.060442522 0.53913474
C -0.9697488 0.12842046 0.27251026
N -1.054691 0.06294419 -1.1103259
C 0.2069912 -0.026980968 -1.5861357
N 1.0955875 -0.038062267 -0.6204306
H 2.0101283 -0.12584576 1.647164
H 0.61552346 -0.4293135 2.4931145
H -1.8438479 0.22879572 0.89621145
H -1.8996953 0.09144649 -1.6551306
H 0.426647 -0.08395619 -2.6432624
