10

O -1.204647 0.22508848 -0.8213717
C 0.5210679 -0.42414132 0.8837272
C 0.69540685 1.0166837 0.63413674
C 0.18296297 0.06788742 -0.4651099
O 0.5528207 -1.3457537 1.6464102
C -1.9338073 -0.81622994 -1.1121457
H -1.246102 -1.7036636 -1.0230693
H 1.6774668 1.4623437 0.49910372
H 0.8128295 -0.14731628 -1.3233839
H -0.057998404 1.6651014 1.0817022
