10

O -0.87636220 1.08708072 -0.47616743
C 0.16157594 0.08721084 -0.46978594
C -2.09686079 0.76980354 -0.80826185
C 1.19759078 0.21623007 0.66210786
O -0.26827673 -1.83639541 1.17601440
C 0.21339588 -0.87906899 0.64349153
H -2.06940039 -0.32891336 -1.05418618
H 0.49115231 -0.17919479 -1.46982904
H 1.00452591 1.00847491 1.38560901
H 2.24265946 0.05477247 0.41100749
