12

N 0.7144363 1.6080825 -1.202182
C -1.1397973 -0.8021549 0.69807726
C 1.2637658 -0.41108805 0.12905668
N 0.19444385 -1.2008816 1.004079
C 0.40267485 0.469249 -0.44455495
O -2.1548455 -1.3003323 1.1273088
N -0.95643425 0.22538948 -0.1845365
H 0.37003648 -2.1501017 1.3072555
H 0.34720117 1.5536826 -2.1461549
H 0.9653556 -0.4802661 1.4714663
H -1.728077 0.78708833 -0.50939053
H 1.7212398 1.7013328 -1.2504246
