12

N -0.21902966 -0.13716108 -1.5190133
C 0.07632923 0.6312138 0.5248246
C -0.02388574 -1.3561065 -0.64765924
N 0.13368893 -0.8228955 0.56245273
C -0.1523772 1.1682955 -0.68016547
O -0.03368233 -2.4853122 -1.0709083
N 0.3517487 1.251902 1.7604647
H 0.38965175 -1.3656791 1.3730543
H -1.116926 -0.20682351 -1.9984578
H 0.5604966 2.223911 1.5716147
H -0.46068865 1.2290808 2.3722093
H 0.49467427 -0.13042466 -2.248416
