12

N -0.21647274 -0.23021480 -1.50808803
C 0.53263611 0.94447422 -0.82159931
C -0.74643945 -1.21014166 -0.48728167
N 0.93254169 1.11908098 1.63347637
C 0.39577308 0.56263743 0.45442327
O -1.36274753 -2.20531618 -0.77733905
N -0.35543580 -0.66657163 0.66387535
H 0.40357058 -0.72194560 -2.15244358
H -0.99167434 0.12191685 -2.07022991
H -0.46180378 -1.12874801 1.55397914
H 0.22441963 1.63252395 2.15284731
H 1.64563209 1.78230440 1.35837950
