11

N -0.42415106 -1.6497413 -1.0648999
C -0.23386735 -0.48891866 -0.3576287
C 1.0131228 -0.13215914 0.20108153
N 1.1619174 1.0150826 0.8236971
C 0.06457488 1.7906451 0.87403035
N -1.1220793 1.4900304 0.37435633
N -1.2766608 0.3281903 -0.2460706
H 0.17710683 -2.4317868 -0.8704616
H -1.3906307 -1.8827741 -1.2401053
H 1.8782182 -0.7899964 0.13413122
H 0.1524488 2.7514281 1.3718696
