12

C -0.10449847 -1.3170543 -0.95289975
C 0.16037627 1.423626 1.5097029
O -0.0569801 1.3848186 -0.86896235
N -0.1295262 -2.5856886 -0.8990369
C 0.041129053 0.7795959 0.34609112
N -0.0010945942 -0.59463286 0.22068256
H 0.1856911 2.5067728 1.5479996
H -0.21170023 -2.9734836 -1.8331623
H -0.022023391 2.3389897 -0.7283622
H -0.15949495 -0.6985035 -1.8505388
H 0.055026922 -1.1415511 1.0662965
H 0.2430946 0.87711143 2.4421895
