12

C 0.09786667 -1.47524029 -0.68385539
C 0.00287978 0.83047379 0.19886018
O 0.42928334 1.18362775 -1.04441660
N -0.09446195 -2.70485972 -0.43086064
C -0.23795624 1.68863303 1.19311757
N -0.15201023 -0.53764703 0.30019793
H 0.12661131 -3.26792594 -1.24560652
H 0.52240199 2.14403309 -1.06399605
H 0.44921186 -1.04736052 -1.62452591
H -0.10101810 2.75518771 1.05519175
H -0.47479643 -0.90590427 1.18197329
H -0.56801190 1.33698257 2.16391980
