11

N 1.95076955 -0.59663146 -0.03132762
C -0.54632464 -0.59109207 -0.33216273
C -1.52543330 0.43471276 0.16022782
C -0.69593841 1.51567567 0.82380730
C 0.65519947 -0.14593768 0.02664021
O 0.55227047 1.10013227 0.69963337
H 2.11794859 -1.31380650 -0.71951098
H -0.77240440 -1.50596228 -0.86023677
H -2.13617430 0.90260099 -0.62448654
H -2.24331203 0.06129014 0.90411914
H 2.64339904 0.13901827 -0.04670370
