11

N 1.5016766 -0.12027571 1.3758465
C 0.5040162 0.022862904 0.44355252
C -1.2426553 0.17306814 -0.9835904
C -0.49261478 -0.71710885 -0.03574973
C -0.5107012 1.5001084 -0.9742282
O 0.4856899 1.3241732 -0.12430322
H -2.2868776 0.36610273 -0.69985455
H 1.7352346 -1.0744996 1.6012187
H 2.3123865 0.4582575 1.2049625
H -0.72130364 -1.743321 0.21234657
H -1.2848511 -0.18936753 -2.0202005
