11

N 0.56519544 -1.410309 -1.3639379
C 0.17548944 -0.4400081 -0.44897842
C -1.0239598 0.10126557 -0.10573727
C -0.7132714 1.1301941 0.85422266
C 0.62678885 1.1202959 1.0111645
O 1.1881013 0.15594466 0.21357566
H 1.4346602 -1.857993 -1.1070243
H -0.15759958 -2.0953298 -1.5378227
H -1.9970161 -0.17614652 -0.48081714
H -1.4155691 1.782644 1.3529385
H 1.3171808 1.6894423 1.6124159
