11

N -1.4917988 -0.47606114 -0.26859966
C 1.0607555 1.2255046 0.8037284
O 0.71053237 0.889021 -0.93450856
C 0.87594885 -0.09482948 0.13998985
C -0.36819482 -0.93088627 0.3410015
O -0.32167503 -1.9071921 1.0647814
H 1.7453973 -0.7376577 0.00021513071
H -2.3611584 -0.95289797 -0.082743146
H 1.5858482 1.116093 -1.2817156
H 0.03676638 1.5406919 1.0890387
H -1.4724218 0.32821447 -0.87118804
