10

O 0.33355799 0.27604168 2.21846147
C 0.01405922 0.14584449 0.91064820
C 0.83713218 -0.25836136 -0.17109150
C -0.00615334 -0.20405469 -1.25762134
N -1.20547672 0.20144615 -0.79572750
N -1.21646419 0.42203293 0.53513158
H 1.25968217 0.03292144 2.33334564
H 1.88046476 -0.54199684 -0.15572272
H 0.15863605 -0.41948093 -2.30291781
H -2.05543847 0.34560719 -1.31450605
