11

N -0.51538014 0.7908019 1.8531334
C -0.59735185 1.6834022 0.97518665
C -0.07367998 -0.37685955 -0.4025033
C 0.33718362 0.6517976 0.60135347
N 0.9370563 -1.2456686 -0.7630694
N -1.2624174 -0.33182588 -0.8609711
H 1.6742308 -1.4009136 -0.091707975
H 1.4103085 0.7919381 0.73539186
H 0.67520076 -2.0657642 -1.2903591
H -1.133521 2.5944417 0.7594974
H -1.4516295 -1.0913495 -1.5159523
