11

N -1.1222088 1.2883571 -1.6180546
C -0.7431071 -0.44838336 -0.29526317
C 0.5663827 0.024486255 0.11539639
C -1.6908559 0.35741308 -1.0015403
N 1.0843189 -0.70078146 1.1962614
N 1.180096 0.9730419 -0.49599355
H 1.9922127 1.2859972 0.043646723
H -0.90990365 -1.5245224 -0.27879986
H -2.7290487 0.03131182 -1.1539106
H 1.9465039 -0.33167166 1.5723659
H 0.42561063 -0.95524836 1.9158916
