11

O -0.122221194 2.0530548 0.6047596
C -0.3786989 -1.1621552 -1.0475234
N -0.5004411 0.26506284 -0.7711303
C -0.012503673 0.89523065 0.31262913
C 1.3039491 0.3095154 2.232327
O 0.69508535 -0.04901555 1.123012
H -0.7595143 -1.337049 -2.0557745
H -0.95659924 -1.7623445 -0.3382148
H 1.1115923 1.4092059 2.3273866
H -1.0485386 0.8531728 -1.380991
H 0.66788995 -1.4746777 -1.0064805
