11

O 0.10590963 1.4238408 0.09751478
C -0.44970113 -0.6494087 -0.8540429
N 0.65460074 -0.7705901 0.20528683
C -1.0811335 0.60204506 -0.31815678
C 1.1101753 0.6477422 0.37764218
O 2.2344925 0.9256101 0.6808872
H -1.1214019 -1.5018044 -0.7146248
H 0.4057211 -1.1240903 1.1440544
H -1.6994537 0.5839158 0.6029985
H -1.6044765 1.1784359 -1.0811241
H 1.4452677 -1.3156964 -0.14043531
