11

O -0.79073566 2.450556 -0.37256673
C -0.40655425 -0.41998088 1.5179075
N 0.028470349 0.35446447 -0.8661454
C -0.45181546 1.3483891 -0.04592987
C 0.6081793 -0.8498352 -0.3568102
O -0.41856998 0.9181941 1.2595193
H 1.6905677 -0.9023755 -0.5264609
H 0.10720014 -1.7574031 -0.6987014
H 0.24964441 0.67026687 -1.7987145
H 0.6367081 -0.9166917 0.9044611
H -1.2530947 -0.8955845 0.98344105
