11

O -2.0117366 0.98833805 1.3788533
C -1.079027 0.61238694 0.724616
N -0.9754426 -0.549885 -0.013680975
C 0.40714914 -0.8068989 -0.3572898
C 0.94122046 0.6298198 -0.32533947
O 0.0813367 1.3118489 0.5880144
H -1.6074946 -1.2937077 0.23813577
H 0.90490955 -1.4444835 0.3833726
H 0.5112595 -1.2640008 -1.3451425
H 0.85936016 1.1087657 -1.3063402
H 1.9684656 0.70781636 0.03480069
