9

O -0.84386415 -1.09848552 1.62978924
C -0.27769525 0.14860006 1.30219389
C 0.03068224 0.29214458 -0.12842954
C 0.29358246 0.34595543 -1.29580933
C 0.84550486 0.45780081 -3.73639613
N 0.58389581 0.40738629 -2.59009377
H -0.24746885 -1.79884870 1.33995413
H 0.63506461 0.34827813 1.88391181
H -1.01970166 0.89716916 1.59487978
