9

O -0.34774452 -2.0575726 -0.46953052
C 0.19227746 1.3446362 -0.19995122
C -0.10066857 0.24656534 0.17848071
C 0.8070472 3.6403995 -0.99059695
C -0.4110788 -1.1309417 0.58897424
N 0.5152117 2.5626676 -0.61868834
H 0.52744794 -2.0132928 -0.8723677
H 0.2547238 -1.4126722 1.4188733
H -1.4372163 -1.1797894 0.9648066
