9

O -0.24241698 -1.215235 1.7561165
C -0.18946289 0.12795508 1.334207
C 0.11843496 0.2634521 -0.100665934
C 0.34113774 0.33218405 -1.2821711
C 0.59915584 0.4148162 -2.6382787
N 0.8123535 0.48314685 -3.7778935
H -0.9157988 -1.676226 1.2406255
H 0.5998338 0.6020542 1.922671
H -1.1232371 0.66785276 1.5453893
