11

N -1.50085305 0.30513907 0.96762692
C -0.09345424 -0.05588654 1.06695583
C -1.68661932 0.46744690 -0.29017290
N -0.60829080 0.27997522 -1.17088248
C 0.36582924 -0.03537702 -0.37247398
N 1.62653547 -0.27076389 -0.77676356
H 2.29270573 -0.70142417 -0.15876140
H 0.45038845 0.66881592 1.68301515
H 0.01795688 -1.04250879 1.52913400
H -2.65176137 0.74110859 -0.70805706
H 1.78756295 -0.35652520 -1.76962006
