11

N 1.7761436 0.27577242 -0.30258214
C -0.31798074 -0.4373791 0.9261962
C 0.4383684 0.15438569 -0.24045308
N -1.7098279 -0.29059392 0.5234646
C -1.6374595 0.2675788 -0.62810796
N -0.37443897 0.5702251 -1.1636187
H -2.5184646 0.51397455 -1.2147392
H -0.07563077 -1.4924952 1.0918497
H -0.12494164 0.103805885 1.8591176
H 2.368502 -0.23236677 0.33151868
H 2.1757302 0.5670925 -1.1826458
