11

O 2.16157295 2.00230901 0.28469075
C -1.13725077 -0.77746109 -0.38947085
N -1.34156074 0.19314529 -1.18887501
C 1.20909058 1.30335379 0.02006324
C 0.95925347 0.05129158 0.77832064
C -0.04061687 -0.82218270 0.60095688
H -2.15697074 -0.00265416 -1.76968225
H 0.49571206 1.55802653 -0.77819363
H -1.77276236 -1.67305485 -0.37053490
H 1.69569053 -0.14265311 1.55618481
H -0.07215815 -1.69011996 1.25654013
