11

O -1.4731103 1.6290497 1.2695254
C -0.75109816 0.8414653 0.6927387
N -0.75956994 0.5601161 -0.6526757
C 0.22319785 -0.4271337 -1.0333855
C 0.87496275 -0.74482995 0.28756145
C 0.32322976 -0.026231524 1.2652197
H -1.3982975 1.0102936 -1.286649
H 0.9504547 -0.031971395 -1.754597
H -0.2345798 -1.3189435 -1.4803863
H 1.6784946 -1.4683306 0.37268966
H 0.566316 -0.023483703 2.3199584
