10

O -1.859796 1.5762434 2.1527247
C -1.447277 1.1895664 1.0951883
C 1.3853172 -1.107464 -0.0009828948
N -0.3289173 0.21407188 -0.9827373
O 1.04057 -0.7953635 1.127349
C 0.6796918 -0.58908415 -1.1673497
C -0.75216573 0.61179024 0.16175349
H -1.9114959 1.5286754 -0.018064644
H 0.96015155 -0.8423071 -2.184932
H 2.2339215 -1.7861289 -0.18294935
