10

O 1.7123559 -1.7811371 0.82676053
C 1.1518543 -1.4692736 -0.19570653
C 0.19634151 -0.33859774 -0.26310125
N -0.3897163 -0.040706977 -1.3927363
O -1.1912725 1.0333056 -1.1220173
C -1.0673188 1.3605738 0.17780027
C -0.19941705 0.53215563 0.7960317
H 1.3148378 -2.0038264 -1.1505545
H -1.66273 2.2038414 0.5025169
H 0.13506532 0.50366503 1.8210063
