10

O 0.14115504 -0.51731837 -0.95074234
C 0.94087645 -0.74744712 1.08055050
C 0.97673964 -1.24887364 -0.17849660
N 0.06758942 0.31911255 1.10546907
O -1.71356191 1.43076511 -1.77158981
C -1.33577834 1.39126267 -0.62693679
C -0.36790031 0.40460178 -0.11273622
H 1.49895177 -2.05751794 -0.66493011
H -1.67971312 2.09266632 0.15570301
H 1.47164154 -1.06725172 1.96370909
