9

N 0.06863135 -0.75533266 0.38849042
C -0.86155789 -0.66659464 1.42038555
N 0.99172494 0.37938594 -1.38570753
C 0.14632234 0.30221427 -0.35050336
O -1.08241527 -1.54897779 2.21352423
H -0.46111490 1.20086755 -0.19318535
H 1.57822920 -0.40909573 -1.60159702
H -1.41561479 0.30184238 1.48153033
H 1.03579486 1.19569067 -1.97293702
