9

N -0.8415856 0.049342733 -0.124343745
C -1.3195083 0.48062068 1.1099671
N 1.0595468 -0.51416326 -1.288656
C 0.44070572 -0.10489392 -0.17427589
O -2.4835994 0.685279 1.3537987
H -0.54063576 0.6331803 1.8965236
H 2.060253 -0.6133854 -1.3319699
H 0.5147489 -0.6998138 -2.1139002
H 1.110075 0.08383351 0.67285657
