11

N 1.69263286 -0.09952906 1.29655449
C 0.43935215 0.10500080 1.21893056
C -0.30754500 0.01070974 -0.04639456
N -1.71158246 0.27027218 0.00418278
C 0.32221955 -0.24916084 -1.17729084
N 0.82015890 -0.59215557 -2.23974421
H 2.00062762 -0.00599146 2.26182670
H -0.20978804 0.37288843 2.06444495
H -2.22822306 -0.55957975 0.28214052
H -2.07361481 0.59786101 -0.88098069
H 1.25576235 0.14968455 -2.78366925
