11

N -0.00691203 -1.8432559 0.650721
C 0.013783072 0.40304884 -0.1507816
C -0.65581405 0.5690586 1.0200895
N 0.3132579 1.4589714 -1.0440978
C 0.33330408 -1.0210549 -0.26715195
N -1.1441809 0.12379458 2.057761
H -1.149218 1.4727008 1.6179585
H 1.3076739 1.5611485 -1.20333
H 0.27509648 -2.7946994 0.43904456
H -0.15941891 1.3624868 -1.932693
H 0.87242836 -1.2921997 -1.1875197
