11

N 1.0405773 0.13268542 1.7686934
C 0.3717713 0.06033095 0.5407572
C -0.9721386 0.12598842 0.27122572
N -1.0545976 0.0629979 -1.111723
C 0.20778772 -0.023764223 -1.5850688
N 1.0952321 -0.034549348 -0.6188399
H 2.008494 -0.12863316 1.6444616
H 0.6170205 -0.42785698 2.4953423
H -1.8446604 0.22392896 0.89567864
H -1.8982787 0.088260256 -1.657251
H 0.42879245 -0.07938817 -2.6432757
