10

O -0.55960647 0.91158457 -0.19225981
C -1.46997953 -1.04232249 0.93493338
C -0.35847917 -0.33575533 0.26419361
N 0.83368806 -0.79647861 0.05592832
O -2.56536170 -0.56857602 1.10560261
C 1.48550157 0.23134039 -0.59952246
C 0.62578149 1.26591593 -0.74491355
H -1.18472569 -2.05786333 1.26712300
H 2.51549331 0.14195103 -0.90922549
H 0.67768787 2.25020374 -1.18185934
