10

O -1.6628281 -2.3153656 -0.028303374
C -0.6748066 -1.8523886 0.4844262
C -0.03115618 1.3918458 -0.7815603
N 0.919737 0.03236254 0.6968346
O -0.7657829 0.2544929 -0.72795576
C -0.13396943 -0.5117363 0.17667857
C 1.0011411 1.2689586 0.08438703
H 1.791707 1.9654762 0.31817797
H -0.07209623 -2.3864555 1.2424207
H -0.3719456 2.15281 -1.4651058
