11

C -0.5255242 1.0415236 0.5422331
C -0.076055594 -0.049095873 -0.43078676
N 1.3780986 -0.1431597 -0.44824997
C -0.72072023 -1.3485132 -0.1027417
N -1.1602889 -2.3823764 0.16538937
H -1.6127541 1.1604546 0.5287909
H -0.22276841 0.79467446 1.5661201
H -0.055761173 1.9859679 0.25801262
H -0.4023159 0.22258656 -1.4410878
H 1.6832983 -0.8532757 -1.1043729
H 1.7147914 -0.42878598 0.46669325
