10

O 0.020954467 0.10883177 1.4721518
C -0.73628885 0.7888018 -0.13534357
C 0.85849696 0.23924276 0.46097818
O -0.37700388 -1.7042062 -0.4128394
C 0.038794495 -0.4157238 -0.65161127
O 0.21020845 1.676231 -0.1502923
H 1.9406455 0.3271291 0.59494615
H 0.36090726 -0.29979113 -1.6876194
H -0.5202738 -1.7479899 0.5484474
H -1.7964405 1.0274744 -0.03881748
