10

O -1.5147043 0.86701465 -0.52881783
C -0.16019407 0.68626267 -0.37745413
C 0.39626458 0.07441251 0.93986183
O -0.28180462 -1.1703403 0.6170614
C 0.45985675 -0.7244013 -0.5559757
O 1.5909684 -0.330324 0.24362959
H 0.604128 -1.4127347 -1.3868233
H 0.45955643 0.39052656 1.9797319
H 0.38280818 1.5276469 -0.80845237
H -1.9368793 0.091937155 -0.12276135
