10

O -0.12059835 -1.1831671 -1.0814986
C -0.06503174 -0.4809242 0.117221646
C -1.3124669 0.372312 0.3327475
O -1.4869297 1.0048435 1.3443906
C 1.140505 0.44480157 0.14487705
O 1.9239335 0.45588285 -0.77355754
H 0.6756465 -0.9318556 -1.5793694
H 0.024194231 -1.1542317 0.9849583
H -2.0190737 0.37597513 -0.5198732
H 1.2398208 1.0963635 1.0301037
