10

C -0.98869634 0.38491508 -1.3106669
O -0.5366005 -0.39250895 -0.19301753
C 0.5212958 0.095131405 0.43272877
O 1.1154517 1.1059953 0.14785735
C 0.9609714 -0.76827514 1.6127853
O 0.40443146 -1.7733476 1.9488275
H -1.8463378 -0.15677173 -1.7053161
H -1.2810012 1.3874372 -0.9858502
H -0.20109557 0.46371734 -2.0650907
H 1.8515811 -0.34629276 2.1177423
