10

C -0.38133988 0.78860104 -0.62642669
O -1.19050167 -0.09238718 0.11997688
C -0.33906330 -1.07791327 0.63708810
O 2.00404338 1.24112763 -0.23460508
C 1.01398239 0.59765475 -0.05403200
O 0.95997046 -0.50146706 0.73558856
H -0.27636556 -1.95428935 -0.02071600
H -0.73218685 1.81548333 -0.49176661
H -0.37475098 0.54580648 -1.69810270
H -0.68378795 -1.36261623 1.63299534
