10

N -0.84222126 0.34189034 0.4767535
C 0.49045917 -0.77140826 -0.91988504
C -0.80374175 -0.39633688 -0.66838014
C 1.3781843 -0.3429794 0.14176781
C 0.4729234 0.43584517 0.9489466
H 0.65165854 0.81129557 1.9511307
H 0.8029257 -1.3564464 -1.7766374
H 1.2219813 1.0601554 0.21596174
H -1.7149584 -0.5756957 -1.2277694
H -1.6572113 0.79368013 0.8581115
