12

O 0.03866772 -1.73540064 -1.71689813
C -0.12231520 0.36891608 -0.46799808
C 0.81628222 1.29730554 1.58233549
C -0.81864523 -0.81227505 -1.04588004
N 0.10433027 0.44417846 0.84146920
H -1.55073386 -0.50967163 -1.80449959
H 1.33996412 2.10521278 1.09170018
H 0.33388092 1.12898660 -1.09269129
H 0.79154590 1.17397341 2.65282479
H -1.38639055 -1.33316780 -0.25176451
H -0.36860519 -0.28115437 1.37447384
H 0.82201898 -1.84690361 -1.16307188
