12

O -0.5470298 0.6165919 -1.6967509
C 0.18687056 1.1726559 -0.6341409
C 0.3630629 0.16305104 0.4862843
C -0.7111985 -0.7894164 0.8349382
N 0.42283887 -1.222899 0.017917931
H -0.23488772 -0.2982555 -1.76614
H -0.36203423 2.0497453 -0.27238476
H 1.1801174 1.5129256 -0.9667331
H 1.0454956 0.45829254 1.2810974
H -1.6562699 -0.7393955 0.30501017
H -0.7713529 -1.1447631 1.8622472
H 1.0843878 -1.778533 0.54865444
