11

C 0.9395316 1.0906924 -0.76786876
N 0.08872282 0.13671999 -0.0860772
C 0.37718347 -1.070329 0.42414123
N -0.70133334 -1.6135114 0.9590263
C -1.6409379 -0.66372305 0.7363509
N -1.2174848 0.41486463 0.10747573
H 0.57762015 1.2443146 -1.7861823
H 0.9266864 2.0407531 -0.22944148
H 1.9582906 0.6978004 -0.7944426
H 1.3643596 -1.5100164 0.38722995
H -2.6726382 -0.767565 1.0497882
