11

C -0.04630563 1.80557642 0.64395436
N 0.01404219 -0.17918736 0.04233994
C 0.07974640 -1.62155277 0.15684647
N 0.03671818 0.59000529 1.14779872
C -0.08061496 0.59492675 -1.05044038
N -0.12154037 1.86885808 -0.70733286
H -0.11844409 0.19988408 -2.05625090
H -0.05340772 2.68380335 1.27701937
H 0.06897038 -2.05335018 -0.84589272
H 1.00121004 -1.90487636 0.66922975
H -0.78037400 -1.98408702 0.72272821
