12

N -0.92633456 2.077623 1.789798
C -0.8562968 1.2741783 0.96386033
C -0.7613462 0.22212979 -0.06647059
C 0.3944475 0.4730925 -1.0859503
N 1.4863154 -0.41111705 -0.68322664
C 1.0064499 -1.1940364 0.19601157
N -0.34386632 -1.0544281 0.5103378
H -1.7335962 0.13320073 -0.5590373
H 0.07061131 0.2144755 -2.0978663
H 0.7226176 1.515811 -1.0927752
H 1.5769898 -1.9863348 0.671125
H -0.6359916 -1.264594 1.4541936
