10

N 1.0910167 -0.5177496 0.23399343
C 0.03541476 -1.4985635 0.21274507
C -0.9523027 -0.4779695 -0.28276974
O 0.52826047 -1.1543608 1.46909
C 0.027986998 0.43614516 -0.12564117
N 0.2622486 1.7633841 -0.15328
H 1.2266243 2.057193 -0.17070602
H 0.20480219 -2.5143895 -0.1344648
H -2.019383 -0.46316782 -0.44641417
H -0.40466818 2.3694787 -0.60255253
