11

O 1.7540973 -0.9165382 -1.8332708
C 0.73113185 -0.26744822 -1.9164824
N -0.03345866 0.08480269 -0.8556928
C 0.34010568 -0.32092232 0.4899532
C -0.5764976 0.2515968 1.473254
C -1.3424169 0.72417665 2.2690592
H 0.32237473 0.10111825 -2.87701
H -0.8804645 0.6183596 -0.9946492
H 0.3324124 -1.4155881 0.5614055
H 1.3669986 0.0030550105 0.69450057
H -2.014283 1.1373879 2.9889326
