11

O -0.018876003 1.0141844 0.79255813
C 1.8842341 -1.1028765 -1.2144326
N -1.7616469 0.116695784 -0.40663332
C 1.2609732 -0.7332584 -0.2586401
C -1.1665086 1.110047 0.09946461
C 0.5230375 -0.3001968 0.9305888
H 2.4385939 -1.4363955 -2.0640244
H -2.6063468 0.4162031 -0.8866975
H 1.1994538 -0.2331045 1.7867426
H -1.474691 2.1591728 0.07173837
H -0.2782231 -1.010471 1.1493355
