10

O -1.768633 -1.1052035 1.2107279
C -0.8773272 -0.54834896 0.6004515
N -0.86552805 -0.13823019 -0.7224949
C 0.3451185 0.4665314 -1.051426
C 1.1134155 0.4479566 0.052892994
N 0.37421843 -0.16942589 1.0599685
H -1.6509708 -0.2824777 -1.3320144
H 0.546546 0.85214 -2.0382643
H 2.1138155 0.8154866 0.21493235
H 0.66934526 -0.3384281 2.0052264
