10

O -2.308809 0.17827713 -0.95318335
C 0.7769519 0.7691138 -0.37973413
N -0.3635833 1.3114613 -0.45964086
C 1.0477576 -0.6139294 0.11870725
C -1.5766765 0.673766 -0.13843039
N 0.09839592 -1.3026167 0.6030719
H 2.0896597 -0.95041513 0.0504325
H 0.4240506 -2.2200844 0.91044617
H 1.6458796 1.360376 -0.6836439
H -1.8336263 0.79405135 0.9319747
