10

N 1.23597737 -1.50844984 -0.34331376
C 0.25709014 -0.71964651 -0.25665628
O -0.96097644 -1.02891749 -0.75641165
C 0.31688894 0.64585046 0.40360807
O 1.35562038 1.03102223 0.90167947
N -0.84222605 1.34085840 0.37409473
H 2.04405463 -1.08044159 0.10844113
H -0.87654017 -1.90758448 -1.15677327
H -0.86276582 2.25828529 0.79028197
H -1.66712298 0.96902392 -0.06495034
