10

N 0.82427937 -1.5078869 -0.45471865
C -0.2032106 -0.6475487 -0.36438972
O -1.333667 -0.8146572 -0.78603894
C 0.20221633 0.6470615 0.36353382
O 1.3338145 0.8110173 0.7820274
N -0.8238333 1.5091095 0.45563275
H 1.7110983 -1.233208 -0.058607683
H 0.7037868 -2.39736 -0.9066492
H -0.703109 2.398745 0.90833616
H -1.7113754 1.2347279 0.060874123
