10

N 1.2887577 -0.6515997 1.1801848
C -1.1303813 0.6155233 -1.0684481
O 0.15459697 -1.8093604 -0.42569602
C 0.39196232 -0.7744289 0.16762018
O -1.4904656 1.8344735 -1.0630922
N -0.23190922 0.4524031 -0.1268895
H -0.5990958 1.7510393 -0.10872228
H 1.3892277 0.20557411 1.6936581
H 1.7475445 -1.4879208 1.5040554
H -1.5202373 -0.13570328 -1.7526705
