10

N 0.82631105 -1.5069402 -0.4537204
C -0.20372216 -0.6473718 -0.3624712
O -1.3321621 -0.82107145 -0.7827212
C 0.20170406 0.6465683 0.36334628
O 1.3315929 0.8176282 0.7854766
N -0.8252904 1.5082871 0.45358595
H 1.7133397 -1.2364714 -0.05913949
H 0.7034723 -2.3964722 -0.91055024
H -0.70195764 2.3981595 0.9080116
H -1.7132876 1.2376842 0.058182135
