10

N 1.1776972 0.1598622 -1.8260275
C 0.27345675 0.5983419 -0.952206
O 0.51491106 -0.061403263 0.198248
C -0.41807547 0.22356497 1.2222153
C -1.5009409 -0.7734128 1.226332
N -2.3580031 -1.5459025 1.2566164
H 1.1588459 0.53834414 -2.7564151
H 1.8844315 -0.54031956 -1.6125394
H 0.11291093 0.18320844 2.1763916
H -0.8452337 1.2177165 1.0673848
