10

N -1.2274219 -0.7068332 -0.29565623
C -0.6263049 -0.008603643 0.6970214
O -1.1194185 0.19416234 1.7865897
C 0.76505315 0.55663097 0.38226333
C 1.306017 0.19255754 -0.9262928
N 1.6837417 -0.123965465 -1.9721795
H -2.1409948 -1.0952108 -0.11562574
H -0.7890895 -0.8757616 -1.1863339
H 0.70432967 1.6472235 0.4618067
H 1.4440882 0.21980052 1.1684071
