10

C -0.9892603 0.38354164 -1.3090603
O -0.5401188 -0.39419124 -0.18940254
C 0.5234202 0.097722836 0.43414646
O 1.1130041 1.1085548 0.14286202
C 0.96293104 -0.7673802 1.6121224
O 0.40896294 -1.7763811 1.9432951
H -1.848981 -0.15569296 -1.7057922
H -1.2805793 1.3867364 -0.98508763
H -0.20135643 0.46063736 -2.062308
H 1.8519777 -0.34354752 2.1192248
