13

C 0.40670747 -1.0335771 0.56198364
C -0.18683901 0.117490165 -0.21730377
N -0.60934365 1.1210806 0.4372082
O -0.5055534 1.1686445 1.8320802
C -0.27703544 0.11605399 -1.7071766
O 1.4662067 -0.62728614 1.3879691
H -0.8951153 2.0541704 1.0190352
H 0.79383606 -1.7754453 -0.14255626
H -0.80286473 -0.7813355 -2.0545292
H 1.0814359 0.0560752 1.9602944
H 0.73330003 0.08902833 -2.1331494
H -0.40799987 -1.5070807 1.1334215
H -0.7967347 1.002181 -2.0772772
