13

C -0.5480256 0.02641862 1.7060533
C 0.024275409 0.16863824 0.32893667
N 1.1355473 0.78953964 0.23365143
O 1.5625 0.87315345 -1.1052691
C -0.7182216 -0.41577065 -0.8580257
O 0.062131505 -1.3117133 -1.6095237
H 0.08398444 0.5311597 2.438191
H -1.5569675 0.4535279 1.7459501
H -0.63497806 -1.0328106 1.9713674
H 2.4205732 1.3027598 -1.0247748
H -1.1038152 0.41531736 -1.4691625
H -1.5836242 -0.9800764 -0.4939865
H 0.85662055 -0.82014394 -1.8634074
