12

C -0.70327882 -0.68988643 0.76352109
C -0.75858059 -0.11409171 -0.66294862
N 0.53158651 0.08239400 0.98957999
C 0.72988297 0.23428927 -0.45038596
O 1.23922157 1.46220958 -0.86369001
H -0.55859405 -1.77971087 0.76178175
H -1.52170005 -0.43692856 1.44244222
H 1.27459593 -0.37640996 1.50718536
H -1.00401357 -0.79338572 -1.48112798
H 1.39321872 -0.51825968 -0.89650304
H -1.37437402 0.78671869 -0.73039807
H 0.75203565 2.14306138 -0.37945665
