12

C -0.34981745 -1.1049973 0.9797727
C -0.2587275 -0.6274173 -0.467598
N -0.26546457 0.8218014 -0.5834022
C 0.8763495 1.5518472 -0.49538243
O 1.9933887 1.0806828 -0.40920976
H -0.34665552 -2.1983492 1.024563
H -1.2689049 -0.74707955 1.4580604
H 0.50691414 -0.73198855 1.549149
H -1.0948986 -1.0184532 -1.0569142
H 0.67093664 -0.98076093 -0.9243068
H -1.1454927 1.3130503 -0.5442965
H 0.6823725 2.6416643 -0.53043514
