12

C 0.71494615 -0.24996369 -0.46565896
C -0.82702744 -0.24716173 -0.5318825
N 0.6342115 0.45845625 0.81008345
C -0.7713968 0.047923457 0.9778339
O 1.4706966 0.37245613 -1.4553403
H 1.2224162 1.3071787 -1.4488753
H -1.4258037 0.8339724 1.3633382
H 1.2875689 0.17369065 1.5329334
H 1.118714 -1.2682309 -0.39171225
H -1.3179038 -1.166032 -0.8571716
H -1.2007097 0.5997689 -1.1135013
H -0.9057117 -0.8620578 1.5799532
