12

C -0.36722237 0.10803358 -1.0306728
C 0.5053085 -0.8231983 0.9440069
N -0.09983867 -1.0853411 -0.22151159
C -0.40733495 1.1772219 0.06512575
O 1.63933 -0.16845822 1.200073
H 0.44805208 0.2866576 -1.7419759
H 0.34556642 -1.5974722 1.6976106
H -0.14222746 2.1779406 -0.29831383
H 1.4608601 0.6963801 0.7826557
H -1.279949 -0.08451909 -1.6263474
H -1.4087907 1.2160585 0.5113346
H -0.69375396 -1.9033036 -0.28198513
