11

C -0.52241185 0.99512353 -1.12422691
C 0.21191927 0.14549360 -0.14091132
O 1.56274923 0.19759459 -0.28896652
C -0.35565968 -0.58761154 0.81685608
O 0.47654907 -1.23734648 1.72090805
H -0.26423658 0.70514604 -2.14855619
H -0.24328258 2.04706245 -0.99849520
H -1.60132154 0.89779272 -0.98908209
H -1.42558858 -0.63910816 0.98041423
H 1.93402692 -0.35602090 0.41527074
H 0.22725639 -2.16812603 1.75678957
