11

C 0.22012432 0.17830843 -0.07540255
C -0.30639827 0.92740667 -1.2542361
O 0.12174101 -1.1853576 1.8165231
C -0.4909291 -0.65006506 0.68952084
O 1.5303795 0.43498737 0.18290679
H 0.01440242 -2.143494 1.8010973
H 1.753463 -0.070415564 0.9798315
H -1.3496369 0.6669887 -1.4429665
H -1.5409642 -0.8643838 0.5293809
H -0.23699927 2.0066288 -1.0788494
H 0.2848172 0.6993957 -2.147806
