10

C 0.63615495 -0.71378136 0.059706125
C -0.32978073 1.555979 -0.2106297
N -1.5644652 1.205966 -0.06491587
N -2.6476824 0.8755231 0.06745759
C 0.54058224 -1.998713 0.25136328
C 0.7578932 0.5788244 -0.1327622
H 0.56116456 -2.4238474 1.252326
H 1.7546955 0.99865407 -0.25037804
H -0.15454198 2.609105 -0.38829908
H 0.44597977 -2.68771 -0.583868
