10

C -0.22456722 0.9743187 -0.36991015
C -0.62738734 -0.041144755 -1.2364676
N -0.4533273 -1.3341278 -0.98908156
N 0.13250637 -1.709618 0.13871275
C 0.53972507 -0.78942907 1.0045849
C 0.38889164 0.5825135 0.80439353
H -0.38952717 2.0185552 -0.6156011
H -1.1154954 0.1828269 -2.181637
H 1.0101774 -1.1811274 1.903299
H 0.7390039 1.2972326 1.5417073
