11

O -0.26548215 1.72040201 -0.59012879
C -1.05604354 0.89485718 0.15485102
O -0.36183970 -1.48452595 -0.29133931
C 0.29009881 -1.12765827 1.34701923
C 0.00824979 -0.18760804 0.24787967
C 0.81275927 0.74433312 -0.65285784
O -2.17807818 1.05088995 0.51341848
H 1.32905756 -1.46155796 1.17815794
H -1.27175361 -1.68938284 -0.01507161
H 1.72848407 1.14552324 -0.21711626
H 0.96454722 0.39472742 -1.67481230
