11

O -0.47225538 -1.3930676 -0.50592613
C 0.15872431 -0.24148023 0.11490441
O -0.5644817 1.7232839 0.30028152
C 0.23922838 1.0425996 -0.7046906
C -0.72974265 0.5840506 1.0326358
C 1.0547682 -1.3637528 0.44482973
O -1.3892925 0.40448907 2.0045567
H -1.0178161 -1.8466719 0.15953623
H -0.27496314 1.0192902 -1.6663134
H 1.7653468 -1.4195982 -0.39861426
H 1.2304837 1.4908577 -0.7812001
