10

C -0.57872176 -0.21546163 -1.1986415
C -1.1982795 0.4812298 -0.19655666
N -0.6303003 0.7095428 1.0212921
C 0.73615485 -0.77889836 -1.0586499
N 1.1986165 -0.4845017 0.19474979
C 0.5559613 0.21383324 1.166876
H 2.1254792 -0.8234545 0.42478967
H -1.0983932 -0.35215276 -2.1426115
H -2.1958766 0.8987341 -0.319736
H 1.0853596 0.35112906 2.1084883
