10

C -1.21157686 0.14495679 -0.46600362
C -0.32315528 -0.65348121 -1.13429146
N 1.21276114 -0.14845186 0.46532076
C 1.02506624 -0.86653665 -0.68388584
N -0.90426554 0.81350929 0.68137605
C 0.30669409 0.63842798 1.10216404
H -2.22992413 0.29258086 -0.82076967
H -0.64527527 -1.15063432 -2.04473076
H 2.13111983 -0.20792090 0.88954070
H 0.63855615 1.13754988 2.01127973
