11

O -1.17952673 1.96915456 0.22267912
C 0.11596196 -0.34262867 -0.74469013
N 0.63000262 0.58867977 0.22085968
C -0.32905615 -1.65505474 -0.11394185
C -0.10892831 1.63967546 0.68282295
C -1.56110127 -2.06401055 -0.12913784
H 0.87542178 -0.55543139 -1.50188519
H -0.73529009 0.14306588 -1.23128531
H 0.40147248 -2.28723278 0.39681856
H 1.50997676 0.39773866 0.67682848
H 0.38106686 2.16604377 1.52093147
