11

O 0.03532141 2.184959 0.7369842
C -2.3472824 -1.0718741 0.23495595
N 0.8697703 0.18321285 0.046464235
C 0.88302577 1.322384 0.7988832
C -0.25714317 -0.18514138 -0.7648562
C -1.1141653 -1.2666476 -0.12126933
H 1.7596103 1.377695 1.4683046
H 0.08361933 -0.54028505 -1.7411566
H 1.625104 -0.47351077 0.17648587
H -0.8517333 0.7216323 -0.9115811
H -0.68612665 -2.2524238 0.07678509
