11

O 1.7523547 -0.9181751 -1.8301476
C 0.73245764 -0.26674667 -1.9173336
N -0.03244909 0.08494739 -0.8541673
C 0.34034082 -0.3226778 0.48954684
C -0.57946336 0.25462127 1.4702733
C -1.3431252 0.7258398 2.2674193
H 0.3261158 0.10465121 -2.8775258
H -0.88057464 0.6148857 -0.9954337
H 0.33089983 -1.4168875 0.5641312
H 1.3671153 0.001480665 0.6951291
H -2.0136719 1.138061 2.9881082
