9

C 0.13596820 0.13718310 -1.88147172
C -0.27968570 0.02977136 -0.65228713
C -0.65222749 -0.07571959 0.60114908
C 0.36503469 -0.09596755 1.67823808
O 0.08494838 -0.19016000 2.84798714
H 0.26683047 1.11215857 -2.34235424
H 0.36040067 -0.74610887 -2.47439170
H 1.41573154 -0.01816440 1.33131797
H -1.69700087 -0.15299258 0.89181282
