9

C -0.48940897 0.49884892 -0.12734856
C -0.786395 1.3477782 -1.0687935
C 1.0239674 -1.2492485 0.5914489
C -0.15179649 -0.37088263 0.7949328
O 1.3842031 -2.067024 1.4020702
H -0.36451286 2.3488421 -1.0699487
H -1.4637899 1.0743678 -1.8740957
H 1.5572885 -1.102272 -0.3699757
H -0.70955586 -0.4804093 1.7217102
