9

C 0.39299598 0.36921334 -0.014045997
C -0.06352251 0.88407534 -1.1751825
C 0.112739235 0.72530353 1.4018208
C -0.23452905 -0.6025343 -1.2062576
O 0.28757563 1.8235922 1.858287
H 0.5024034 -1.230988 -1.7064548
H 0.51133734 -0.8501526 -0.0035804515
H -0.2595233 -0.12354629 2.0138144
H -1.2494766 -0.9949634 -1.1684006
