9

C 0.77648914 0.11931244 -1.6536635
C 0.15047067 0.023958005 -0.3352174
C -0.35113698 -0.042480502 0.7581495
C -0.97317034 -0.15028788 2.0666702
O -0.65669656 0.5147334 3.02646
H 0.81351185 1.1610001 -1.9855207
H 0.2207366 -0.46093562 -2.3976953
H 1.8004677 -0.2607462 -1.6142001
H -1.7806722 -0.9045537 2.1350176
