11

C -1.0363158 0.53002256 1.0909039
C -0.4136361 -0.16790856 -1.2107852
O 0.7735755 -0.9656038 0.84772855
C 0.05583714 0.13216946 0.1953492
C 1.4394481 0.6361195 0.41289312
N -1.8867986 0.91762614 1.770036
H 1.1952672 -1.4966931 0.15300868
H 0.44724455 -0.46254557 -1.8167493
H -0.8266873 0.74596864 -1.6459708
H -1.1856505 -0.94340855 -1.2248675
H 1.4377155 1.0742534 1.4284537
