10

O 0.07145040 -1.37861247 1.62584685
C 0.02737358 -0.51945457 0.61162763
N -0.26946545 0.73025841 0.77986591
C 0.20142759 0.13032047 -1.60890612
C 0.30945379 -0.92130875 -0.75669297
N -0.18408256 1.21329541 -0.58656524
H -0.14109042 -0.89842053 2.43977714
H 0.50044545 1.96855717 -0.62591743
H -1.08430509 1.61302168 -0.85422743
H 0.56879274 -1.93765672 -1.02480844
