10

O -1.9455726 -0.79254186 0.3683478
C -0.7321248 -0.29909065 0.13859569
N -0.38964668 0.89156586 0.51707405
C 1.4442374 -0.34502983 -0.6642802
C 0.2954913 -1.0604116 -0.552601
N 0.98088735 0.9413989 0.040731512
H 0.13038522 -2.0661237 -0.9178255
H 1.5970321 1.12925 0.8316962
H -2.4599519 -0.12387976 0.8443156
H 1.0792629 1.7248626 -0.6060541
