10

O -1.2332584 -1.3070955 -1.2024558
C -0.48063648 -0.5215418 -0.4310237
N 0.09592836 0.9882476 0.8892698
C 1.3683525 0.27973637 0.6476864
C 0.9306141 -0.627408 -0.30041185
N -1.0069497 0.45924366 0.27780235
H -2.1556256 -1.0281311 -1.0998996
H 1.5542185 -1.3243268 -0.8436062
H -0.05850419 1.5206461 1.7364719
H 0.9858609 1.5606294 0.32616648
