11

C -0.53154606 -1.0789225 -1.4127357
C -0.016504986 -0.25127855 -0.2862666
N 1.1592463 -0.26128924 0.2502994
C 1.090648 0.6928213 1.2561115
C -0.14351061 1.2353481 1.267268
O -0.8692405 0.63865083 0.2784214
H -1.4240513 -1.6367564 -1.111928
H 0.24304923 -1.7839472 -1.717377
H -0.80089283 -0.45558146 -2.270523
H 1.9358187 0.91193146 1.893283
H -0.6430161 1.9890237 1.853447
