10

N 0.32571414 1.4697912 0.042106885
C 0.14833893 0.30037183 -0.38641763
O 0.3931923 -0.8040091 0.4122874
N -0.16356854 -0.14854033 -1.6404552
C 0.12388499 -0.7661128 1.7450839
O -0.49388137 0.055911552 2.3393648
H 0.10157511 2.170338 -0.654827
H 0.5477743 -1.6835417 2.18323
H -0.5238282 0.51338947 -2.3040762
H -0.45920163 -1.107598 -1.7362967
