10

O 1.4617928 1.0451219 0.3699363
C -0.3287476 0.33860347 -0.15082148
C 1.1592522 0.21959648 -0.6359797
O -1.3519344 -0.6058581 -0.61655676
C -1.033247 -0.65251464 0.7378242
O -0.4712789 1.5882162 0.043982316
H 1.5476662 -0.8046868 -0.60570085
H 1.3049787 0.66508895 -1.6357795
H -1.7900792 -0.25434628 1.4133855
H -0.49840263 -1.5392209 1.0797099
