10

O 1.2548066 -1.384845 0.98550236
C 0.356219 -0.9487813 0.014344694
C -0.020933313 0.49709556 0.22170076
O 0.42142135 1.14297 1.1449108
C -0.980068 1.152942 -0.7570178
O -1.4487201 0.5620823 -1.6930736
H 1.4070504 -0.6387708 1.5816859
H 0.7793484 -1.051293 -0.9959458
H -0.5677518 -1.5458645 0.02406355
H -1.2013726 2.214465 -0.5261709
