10

O 1.9264508 -1.4462752 -0.9790233
C 1.9662496 -0.64170396 -0.0897877
O 0.9236619 0.06413126 0.36048174
C -0.31682533 -0.2078916 -0.31772134
C -2.231902 1.3131641 0.72711354
C -1.3526933 0.63753015 0.26902792
H 2.8647254 -0.3666535 0.48284724
H -0.5685081 -1.2675565 -0.20500587
H -3.0103338 1.9179239 1.1395591
H -0.20082533 -0.0026686322 -1.3874913
