10

O 0.0368586 -2.5565786 0.5125233
C -0.24033207 -1.9917698 -0.5104455
O -0.23678948 -0.66873395 -0.697005
C 0.13568199 0.09518403 0.46492088
C 0.103340484 1.512133 0.11096249
C 0.08862552 2.6867445 -0.13899174
H -0.53587335 -2.4859316 -1.4494393
H -0.5630766 -0.12020201 1.2798835
H 1.1375723 -0.20225833 0.79117054
H 0.073992655 3.7314136 -0.3635792
