10

O -1.900464 -0.2660176 -1.8201523
C 0.32143065 -0.04278018 -0.34890753
O -0.7768053 0.7357088 -0.120220356
C 1.2811042 -0.1827064 0.6386818
C -1.8451899 0.5534098 -0.949204
C 2.1010492 0.23062263 1.5656353
H 0.82343554 -1.2711754 0.56196
H -2.6252322 1.2744226 -0.68164635
H 0.30437025 -0.61807984 -1.270488
H 2.3163018 -0.41340452 2.4243417
