10

C 0.08622989 -0.50570606 -1.28613736
N 0.19109284 -0.04169587 0.07718763
N -0.78087129 0.51977588 0.83136154
C -0.31834819 0.87064370 2.04391658
N 1.02801877 0.46783059 1.94284083
N 1.28344432 -0.05947447 0.78918598
H -0.68962236 -1.27064635 -1.36673261
H -0.13903461 0.33038006 -1.95215927
H 1.05360529 -0.93366665 -1.54801684
H -1.71451480 0.62255908 0.46855343
