10

C 0.25887284 -0.62484056 -1.4343038
N 0.11542276 -0.06869314 -0.10501835
N -1.0251477 0.4099559 0.36190426
C -0.66351146 0.78413177 1.57641
N 0.6377999 0.5416416 1.828344
N 1.1148376 -0.0016969268 0.7469504
H -0.38449177 -1.5002784 -1.5358759
H 1.3038342 -0.9056739 -1.5543294
H -0.01969542 0.12761438 -2.1734185
H -1.3379211 1.2378392 2.2893372
