10

C 1.1523545 0.46161318 1.8697469
N 1.0769323 1.0126394 -0.29725322
N 0.18448876 -0.20983751 1.2218924
C -0.7812364 -0.35180873 -1.0877609
N 0.14319883 0.12692265 -0.08716482
N 1.6862965 1.2374665 0.82182693
H -0.72183245 -1.4397486 -1.167973
H -0.4547839 -0.89265543 1.5946852
H -0.48562372 0.1035666 -2.032638
H -1.7997942 -0.0481578 -0.8353616
