9

O -2.1490405 -0.068095006 -0.33750346
C -0.03428688 0.06124561 0.8356227
C 2.0504847 -0.18422705 -0.13353841
O 1.157023 -0.5242747 0.79195637
C -0.81617415 0.17628103 -0.36032853
N -0.073791884 0.743767 -1.1985952
H -0.26318312 0.5883281 1.7590059
H -2.524358 0.32736948 -1.1366953
H 2.6533267 -1.1203947 -0.21992406
