9

O 1.0073051 -0.9479073 -1.4984169
C 0.31119198 -0.3478562 -0.52042514
C -0.9409203 -0.6223898 -0.07785741
O -1.198884 0.26614183 0.9398649
C -0.09173525 1.0059203 1.0357528
N 0.84443384 0.69582903 0.19870928
H 1.8631936 -0.5010932 -1.5437472
H -1.7144594 -1.3286451 -0.3249919
H -0.080125414 1.7800004 1.7911117
