10

O 0.9542895 2.0933166 -1.1634432
C 0.67143846 1.1162095 -0.54797924
O 1.126653 0.7566948 0.7084812
C 0.4995513 -0.53718376 0.56701475
C -0.96533287 -0.3701894 0.5067125
C -0.121088795 -0.1483078 -0.74356383
H 1.0797168 -1.4048569 0.8481351
H -1.554861 -1.2821426 0.47646698
H -1.4288452 0.47069257 1.0157846
H -0.26152146 -0.6942327 -1.6676089
