10

O 0.02370403 1.01536999 -1.17998201
C 0.70084127 1.47969668 -0.15682806
O -0.47297353 -1.76637942 0.90932269
C 0.61900848 0.43837835 0.93282266
C -0.19198864 -0.72307171 0.38002311
C -0.58618989 -0.29230092 -1.02229357
H 1.62103040 0.12630072 1.25109361
H -1.66819988 -0.19134853 -1.14369970
H 0.15110292 0.87106252 1.82614888
H -0.19633519 -0.95770754 -1.79660755
