12

N 0.7180565 0.3484552 0.98437196
C -0.704192 0.52504265 0.9467094
O -1.3447988 0.97418857 1.8678726
N -1.1361934 0.056666568 -0.24712801
C 1.1755427 -0.5989195 -0.38347042
C -0.051111333 -0.23742925 -1.2062852
H 1.089858 0.054594856 1.8812873
H 1.0763798 -1.6142926 0.019816967
H 0.12405526 0.64167887 -1.8438066
H 1.4916661 0.6965011 0.3252211
H -2.0990326 0.22617982 -0.49487874
H -0.3402299 -1.0726659 -1.8497103
