12

N 0.55816452 -0.11369007 1.06495639
C -0.18691661 -1.28620132 0.41564379
O 0.33405502 2.26312745 0.82165707
N -0.30812633 0.74968605 -0.83160172
C 0.18037354 1.16695723 0.34651362
C -0.27101955 -0.73955611 -0.99194762
H -1.19986143 -1.19408935 0.84677083
H 0.38051979 -0.01209763 2.06179298
H -0.49183373 1.43662969 -1.54630718
H 1.57341235 -0.21906793 0.94989534
H -1.17004472 -1.07808980 -1.51213504
H 0.60127694 -0.97360796 -1.62523899
