12

N 0.8544758 0.5589389 0.64503
C -0.024660125 1.1488584 -0.44035405
O -0.018695917 2.3165898 -0.73588115
N -0.7148632 0.09820161 -0.90986776
C -0.35440212 -1.1922666 -0.23927882
C 0.2708858 -0.7913931 1.0781138
H 0.9559259 1.2282937 1.4047891
H 0.3246428 -1.7309809 -0.92149895
H -1.2512982 -1.8005118 -0.10121559
H -0.5614338 -0.49116328 1.7395656
H -1.2650497 0.21926983 -1.7459785
H 1.7844728 0.43616334 0.22657637
