10

O -1.6088359 -0.2872333 -1.2143958
C 1.0533016 -0.7909076 0.51475626
N -0.13277863 -1.2263726 0.3181257
C -0.911395 -0.05013157 -0.0390832
C 1.1295006 0.66406935 0.22144517
N -0.013271305 1.0994732 -0.14693014
H -1.8192534 0.5750558 -1.5927987
H -1.5817554 0.15168472 0.8152311
H 1.8709589 -1.4277073 0.8390309
H 2.0135283 1.2920692 0.2846186
