10

O 0.89575684 1.075909 1.4893038
C 0.039541308 -1.0667106 -0.7907554
N 0.9742265 -0.25984356 -0.472014
C 0.3041767 0.81678516 0.26717922
C -1.2561305 -0.61044085 -0.21399598
N -1.098945 0.46929651 0.45028672
H 1.8458878 0.9492552 1.3771988
H 0.20393874 -1.9614247 -1.3849456
H 0.30800328 1.6947994 -0.4028981
H -2.216456 -1.1076257 -0.3193592
