11

N 1.8509219 -0.10794427 -1.4371723
C 0.59816754 -0.13292436 -0.8702553
N -0.54960936 -0.24535057 -1.4425864
N -1.5004905 -0.06699687 -0.43288106
C -0.8354826 0.09504443 0.655683
N -1.2988454 0.19657181 1.9440535
O 0.5159964 0.07655455 0.47346586
H 2.544389 -0.65083545 -0.93987554
H 1.8029859 -0.35626253 -2.4158545
H -0.82405335 0.89127326 2.5032804
H -2.3039794 0.30087003 1.9621425
