11

N -2.0785472 -0.3102627 -0.7099653
C -0.8465716 -0.09967335 -0.12699127
N -0.7099721 0.20462434 1.1449226
N 0.6599509 0.25292832 1.2606226
C 1.2176473 -0.010083874 0.07643427
N 0.312944 -0.24297893 -0.84419876
O 2.546798 -0.012545572 -0.06263794
H 2.7271473 -0.25091887 -0.9831345
H 1.1046146 0.4614589 2.138805
H -2.0938642 -0.10139967 -1.6962388
H -2.8401477 0.1088514 -0.19761805
