13

C 0.25603744 -1.58575829 -0.36762292
N -0.15256333 1.76191156 0.92370769
C 0.02698708 -0.10205243 -0.61032151
O -1.34286369 0.21732488 -0.83093178
C 0.63920866 0.73865958 0.51673875
O 1.73780185 0.49064937 0.97886049
H -0.11367727 -2.16556318 -1.21836801
H 0.54221887 0.20370472 -1.52751307
H 1.32002892 -1.78032865 -0.22008369
H -0.27297106 -1.91448383 0.53679024
H -0.99906926 1.96192986 0.41596418
H 0.22304197 2.43385000 1.57527043
H -1.86418033 -0.25984333 -0.17249068
