13

C 0.480736 0.8535887 0.5113745
N -0.48199394 1.7670263 0.7912924
C 0.09105632 -0.13020872 -0.59865665
O 1.5625119 0.7992554 1.0670555
C 0.51319146 -1.5470452 -0.2421092
O -1.2881937 -0.032925308 -0.93831414
H 0.30218837 -2.2216744 -1.0769643
H -1.7862425 -0.5461189 -0.2890184
H 0.62908465 0.19865389 -1.4945174
H -0.03403856 -1.9013526 0.6415645
H -1.3045171 1.8093634 0.2115974
H 1.5786299 -1.571108 -0.0055395267
H -0.2624125 2.5225456 1.4222355
