13

C 0.58414155 -1.5854278 -1.165377
N 0.22676253 -0.6457525 -0.12622796
C -0.05293031 0.6589959 -0.37725046
O -0.076032616 1.1669241 -1.4844532
C -0.336452 1.4785943 0.87712765
O -0.5637926 0.69661635 2.0369694
H -0.1093539 -2.4313562 -1.1828225
H 0.5323028 -1.0585188 -2.1184762
H 1.6023701 -1.9616892 -1.0219146
H 0.2705283 -0.9104927 0.84606147
H -1.1679863 2.1572978 0.6510229
H 0.5474813 2.0911875 1.0824616
H -1.457039 0.3436215 1.982879
