11

N -0.06804944 -1.6425809 0.12956597
C 0.20220348 -0.5762706 0.9317643
O 0.78677976 -0.6293954 1.9929734
C -0.2468118 0.7445964 0.3586795
C 0.2547257 1.1963505 -0.94123054
O -1.0689756 0.70163095 -0.8005543
H -0.72453386 -1.5265871 -0.62626195
H 0.124082506 -2.5647311 0.49056113
H -0.52505296 1.4830642 1.1085975
H 0.3350535 2.2634687 -1.1437991
H 0.93057865 0.55045444 -1.5002966
