11

N 1.0034196 -1.1376321 0.32444257
C -1.0074683 0.21399526 1.0681102
O -1.3627928 1.1998438 0.0764601
C -0.29393837 0.80705625 -0.8064178
C 0.12544723 -0.24080764 0.19252472
O 1.8427299 -1.1612828 -0.7932099
H -1.8070762 -0.5177889 1.2329283
H -0.72252953 0.66753864 2.0235064
H 0.427783 1.614514 -0.9784248
H -0.659758 0.42767268 -1.7669339
H 2.4541833 -1.8731091 -0.5729856
