9

N 0.7168779 -0.065299705 -0.73003703
C 1.01467 -0.56812745 0.71166307
C -0.37747496 -0.50450796 0.15701137
C -1.3151429 0.569416 0.4583677
N -2.038189 1.4196854 0.75268483
H 0.6894683 0.9137174 -1.0050915
H 1.1914171 0.3529392 1.2820362
H -0.86906964 -1.427457 -0.1459001
H 0.98744315 -0.69036597 -1.4807342
