10

O -2.3859382 0.9567253 0.4049885
C -1.7689542 -0.059044454 0.6247671
C -0.3565327 -0.22474623 0.21170151
N 0.27634752 -1.3417146 0.46492988
O 1.5360094 -1.1746087 -0.030216172
C 1.6389765 0.050902806 -0.5754052
C 0.47008884 0.7186646 -0.46199805
H -2.2146037 -0.9253415 1.1463375
H 2.6051233 0.28851584 -0.9980945
H 0.199483 1.710647 -0.7870106
