11

N 0.8459795 0.5814117 -1.9479383
C 0.11600726 0.26037654 -0.8426708
N 0.026575629 -0.5907731 2.4688065
N -1.3348534 0.048507635 0.64392865
C -0.14667088 -0.22790982 1.2763718
N -1.1553454 0.23815463 -0.7278962
O 0.8155785 0.0063287104 0.29856697
H 1.0111021 -0.70419866 2.6857727
H 1.7318766 0.10712572 -2.0320144
H 0.29737547 0.6121111 -2.7927196
H -2.2076254 -0.33113456 0.9697924
