10

O -1.0980198 0.3066551 -1.4787843
C -0.31462973 -1.1028678 0.65343505
C 0.5956154 0.5981509 0.3438149
O 0.72349584 -0.31667998 1.3443719
C -0.32070634 -0.022803584 -0.40760204
O 1.3151357 1.7136483 0.4104987
H 0.07943379 -2.0885952 0.39073753
H 1.031532 2.3056836 -0.2976315
H -1.2016221 -1.1866553 1.2869493
H -0.8102346 -0.20653631 -2.2457895
