10

O 1.8346901 -0.16039313 0.7736487
C 1.1361924 -0.811105 0.031065192
C -0.11620613 -0.2677663 -0.5597631
C -1.0606678 0.38666186 0.3942261
N -0.2938184 1.181582 -0.53793794
H 1.3955294 -1.8528715 -0.2456783
H -0.50796 -0.78182536 -1.4335817
H -2.1265092 0.32604784 0.19302283
H -0.7716553 0.39548048 1.4434952
H 0.51040494 1.5841889 -0.058497075
