10

O 1.12331263 -0.30539018 -1.01674363
C -0.06666940 -0.35790298 0.90887453
C 0.93973757 -0.86998038 0.21274103
C -0.61557890 0.78208916 0.07842111
N -0.01756355 0.55024123 -1.25384719
H 1.66314372 -1.63686446 0.46130913
H -0.64117739 -0.08652792 -1.75044655
H -1.70563421 0.79298284 -0.01695057
H -0.37675852 -0.62758224 1.90851691
H -0.30281195 1.75893473 0.46812513
