10

O -0.24823925 -0.91625935 -1.2197164
C 0.32052207 -0.28672272 0.8795726
C 0.0902188 -1.2941412 0.047858406
C 0.20318113 0.97601116 0.053575717
N -0.46395713 0.5127135 -1.1819794
H 0.15474696 -2.3661199 0.1889666
H 1.1862371 1.4012396 -0.18454485
H 0.6270906 -0.34753808 1.9142147
H -1.468515 0.5554947 -1.0087358
H -0.40128526 1.7653222 0.51078844
