11

N -0.38730243 0.54507405 0.6956877
C 0.7355749 -0.5287237 -0.9250115
C -0.19519523 -0.66943693 0.046628587
O 1.1545397 0.8029082 -0.8914764
C 0.43873626 1.3283244 0.085222125
O 0.65791047 2.6184366 0.3234986
N -0.89154917 -1.785248 0.4879756
H -1.0701889 -2.481776 -0.21944192
H 1.2066562 -1.1648403 -1.654911
H 0.079616375 2.8608587 1.0618063
H -1.7287983 -1.5255768 0.990022
