11

N 0.30259842 1.4650624 0.49575123
C -0.4498393 0.8572315 -0.46152127
O -1.326136 1.4058081 -1.1026998
C -0.19184005 -0.622612 -0.6438317
C -0.52027774 -1.5665283 0.4569231
O 1.0792915 -1.0266217 -0.07716601
H -0.66862243 -0.9965057 1.3874506
H 0.18040496 2.4568448 0.626482
H 0.81419545 -2.055639 0.12640795
H 1.1221781 1.012321 0.8692626
H -0.341953 -0.9293607 -1.6770587
