11

N -0.46933906 -1.54919514 0.32707528
C -0.42841715 -0.65189066 -0.70538549
O 0.95683964 0.75269580 0.89375329
C -0.39508407 1.76043866 0.19981893
C 0.32794447 0.62658540 -0.42374926
O -0.99408651 -0.78803123 -1.77077377
H 0.28788266 -1.58414624 0.99212235
H -0.94105118 -2.42034667 0.13154182
H 0.34528915 0.42717618 1.58078023
H 0.19213240 2.65897125 -0.05861649
H 1.11788978 0.76774228 -1.16656716
