11

N 0.40788844 -1.5959711 0.117329456
C -0.3214807 -0.745521 -0.6685207
O 0.780741 1.0805688 0.7097201
C -1.0238019 1.3395132 0.67282796
C -0.15575255 0.7252444 -0.35983604
O -1.1109262 -1.0903198 -1.5237738
H 0.16712084 1.2634919 -1.2552464
H -1.025331 2.420438 0.44794554
H 1.2863318 -1.2903565 0.5069843
H 0.6655428 0.4697982 1.4618183
H 0.32966754 -2.5768862 -0.10924878
