11

O -0.74355738 -0.60802797 0.95482946
C -0.02875700 -1.31975600 -0.53489898
C 0.16340666 0.07677380 -1.13425295
N 0.53238700 0.91859283 0.00624570
C 0.06440045 0.53086544 1.19306673
O 0.22179795 0.97465531 2.29350627
H -0.59562236 -1.22213152 1.69203448
H -0.98269053 -1.69544967 -0.94084547
H 1.00164055 0.02984811 -1.83283850
H -0.69460632 0.54158171 -1.65019666
H 1.06160118 1.77304794 -0.04665030
