10

O 2.07747719 0.34544626 0.02976028
C 0.00470377 0.19505967 -1.35554305
C 0.83121111 0.04891232 -0.31023357
N -1.89860109 0.16176363 0.14975111
N -0.07766676 -0.77449429 0.45871935
C -1.08233124 -0.01194710 1.12088753
N -1.00159664 -0.61814036 -0.69477426
H -0.03682611 0.62458187 -2.34258217
H 2.33544010 -0.21684438 0.77356768
H -1.15181038 0.24566247 2.17044698
