10

O -0.22259319 -0.6581499 2.2192018
C 0.39662704 -0.61043376 -1.1981568
C -0.112612784 -0.23015812 0.96509725
N -0.3003158 1.3964726 -0.56258565
N 0.30276975 -1.0857847 0.06689109
C -0.465401 1.1568174 0.73537326
N 0.11704156 0.5945009 -1.5869787
H 0.73864454 -1.3011763 -1.9633573
H -0.5020462 2.3282912 -0.90386003
H 0.047886156 -1.5903792 2.2283752
