11

O 0.81436765 -0.5085223 -1.4902489
C -1.2317953 -0.34380785 0.57045126
C -0.002297492 0.4418317 0.6942968
C 1.3008544 0.059986796 0.095419794
O -1.0741919 0.86911595 -0.173664
H -1.9871899 -0.2956633 1.3510478
H 0.10281558 1.0636824 1.5881877
H 1.4309139 -1.0122324 -0.847017
H 0.00674828 0.022547517 -1.5946053
H -1.2244238 -1.2611644 -0.019545067
H 1.8641984 0.96422565 -0.17432286
