11

O 1.343963 0.76245385 -0.61044556
C -0.822925 -0.2596858 -0.17077856
C -0.28746137 0.79419243 -1.0907991
C -0.3975378 -0.5842392 1.1993344
O 0.109561935 -1.3374211 0.08031378
H -1.0396432 -1.1598687 1.8634702
H -1.8168051 -0.60580254 -0.46080673
H 1.3704685 -0.19811015 -0.34651178
H -0.55125093 1.7801669 -0.6734983
H 0.33963376 0.048680693 1.6980506
H 1.751996 0.75963366 -1.4883292
