10

N 0.9752441 1.4208821 0.5541288
C 0.25842908 0.31812477 0.1008662
N 0.24396469 -0.024452839 -1.1822067
N -0.4739274 -1.1408688 -1.1860005
N -0.9370326 -1.5502585 -0.028621389
C -0.48345828 -0.6367371 0.82661545
H 0.5034377 1.9495972 1.2741123
H 1.2537853 2.022197 -0.20819737
H -0.6464518 -1.653038 -2.0345764
H -0.69399065 -0.70544595 1.88388
