9

N -2.0569096 -0.6135319 1.1678221
C 0.077062175 -0.4112074 0.27535132
O 2.6691387 -0.5898865 -0.521675
C 1.9696146 0.28618813 -0.9099346
O 0.64492255 0.49093014 -0.57545704
C -2.85091 -1.1648132 1.8302326
N -1.1718233 0.039961558 0.39792514
H 2.2520275 1.0904818 -1.6041988
H -1.5331227 0.8718772 -0.06006575
