11

N 0.71281806 1.29044522 -0.58315344
C 0.84473939 0.33332255 0.50124832
C -0.52851004 -0.19150150 0.96816290
C -0.83516957 -0.63465201 -0.38756378
C 0.53048830 -0.11787945 -0.88536623
O -0.57090335 -1.58788466 0.64907412
H 1.77781006 0.30008467 1.06003469
H -1.16006825 0.13443719 1.78982264
H -1.77426469 -0.75319930 -0.92233155
H -0.16340893 1.80884418 -0.55376304
H 1.16646918 -0.58201696 -1.63616454
