11

N -1.0698967 0.19384727 1.5811406
C 0.7685329 -0.6501498 -0.7721442
C -0.6597383 0.22927517 -0.8408228
C 1.0292568 -0.03583698 0.4560248
C -0.26613122 0.7201026 0.5949133
O -0.59507805 -1.1239421 -0.86906564
H -0.16867565 1.8132348 0.6306931
H 1.9151496 -0.052204095 1.0788914
H -1.2242707 -0.7845588 1.329757
H 1.4290421 -1.0577421 -1.5300248
H -1.1581906 0.74797404 -1.659363
