10

N 0.60253924 -0.16811085 3.3053563
C 0.34898987 -0.02593265 2.1864648
C 0.041037727 0.13508281 0.79895353
N -0.65432334 1.1217567 0.28329763
C -0.70003074 0.86343884 -1.0545083
C -0.022810323 -0.29308096 -1.3494111
N 0.45028883 -0.75413597 -0.15388466
H -1.218899 1.5220814 -1.7362761
H 0.15764952 -0.8125196 -2.2772634
H 0.99555814 -1.5885797 -0.0027287484
