10

N -0.4163636 0.80098057 -0.065416425
C -0.46256638 1.003999 1.3982346
C 0.39802918 -0.6782359 -1.7677099
N 0.9121429 -0.8200457 -2.7890544
C -0.22745626 -0.5540711 -0.4548899
C 0.6057431 1.4063603 0.8259398
N -0.65007055 -1.5248488 0.23376733
H -1.1885602 0.86516714 2.179211
H 1.5493096 1.9109546 0.696274
H -0.5202077 -2.4102602 -0.2563561
