9

O -0.73195113 0.53215872 -0.54659934
C -1.35163610 -0.28446171 1.29559117
C 0.28824402 -0.10651126 0.04449736
N -1.82118306 0.39799824 0.29841106
C 1.64613825 -0.19885292 -0.56882770
N -0.02965144 -0.62842062 1.19166231
O 1.55785520 0.43665497 -1.70652873
H -1.97871241 -0.54983881 2.13521849
H 2.42089649 0.40127329 -2.14342478
