9

O 0.89065576 -0.7167301 -0.0010172637
C 0.82556176 0.806244 -1.4535412
C -1.1696527 -0.30507967 1.224432
N 1.575763 -0.18360072 -1.0696874
C -0.21677403 0.014895418 0.1446498
N -0.31638965 0.9814146 -0.72144306
O -0.84779364 -1.3058575 1.9790398
H -1.8430938 -0.72214425 2.1890693
H 1.1017233 1.430858 -2.291502
