11

C -2.0864005 0.39565277 0.88831383
C -1.2068738 -0.20371686 0.061049253
C -0.09662364 0.61215997 -0.31594235
C 1.0515869 -0.097734116 -0.8324315
O 0.8862794 -0.48430854 -1.979999
N 2.216116 -0.21963196 -0.124636546
H -2.002991 1.466085 1.062287
H 2.3399074 0.37540668 0.6799802
H -1.2820505 -1.26719 -0.17958185
H 3.0425177 -0.42085356 -0.6704858
H -2.8614678 -0.15586928 1.4114467
