11

C -0.7306788 -0.16987255 -2.31418
C -0.16294931 -0.12017605 -0.9683561
C 0.321759 -0.0881841 0.13311742
C 0.9793283 -0.10039519 1.4389963
O 2.086002 -0.56794935 1.6128721
N 0.24347827 0.47048357 2.4362311
H 0.009840664 0.15149331 -3.052344
H -1.6061705 0.47798356 -2.4001467
H -1.0311447 -1.1923949 -2.5600243
H 0.6085263 0.40287656 3.373078
H -0.7179912 0.7361351 2.3007553
