10

O -0.16559872 0.64337593 -2.4187791
C -0.06653488 0.19994351 -1.2885273
N 0.32752833 1.0052836 -0.17515634
C -0.102915704 -0.97076774 0.6483505
C 0.320429 0.31666812 0.9765844
N -0.2956902 -1.062947 -0.79808444
H 0.57238734 1.9767505 -0.29640442
H -1.2259864 -0.9805074 0.19244985
H 0.5993395 0.7448693 1.928204
H 0.03704169 -1.8726691 1.2313628
