10

O 2.1808553 -1.3799819 0.1035644
C -0.1898799 1.136629 0.07807391
N -0.15700689 -1.0787253 -0.10693184
C -0.98682755 -0.1010209 -0.10989065
C 1.3011589 -0.5450344 0.08265011
N 1.1924052 0.7530012 0.18090136
H -0.53931713 1.6655865 0.97687167
H -0.3692216 -2.0606267 -0.21212427
H -0.37282145 1.8198235 -0.7645071
H -2.0593445 -0.20965067 -0.22860757
