12

O -0.66222227 -1.4527584 0.879821
C -0.059760418 -0.22512211 1.2002319
C 0.44506678 0.4532 -0.072737
O 1.3285682 -0.42206612 -0.71967286
C -0.7110971 0.7751618 -0.9968619
O -0.7261399 0.37833825 -2.135662
H -0.027097171 -1.9077597 0.3070765
H 0.7859196 -0.34708083 1.8910506
H -0.8160519 0.39488593 1.6936624
H 0.9366801 1.406365 0.18490157
H 1.0274653 -0.46331263 -1.6433457
H -1.5213312 1.4101487 -0.5884642
