12

O -0.4662298 -1.5045891 -1.0061299
C 0.2957494 -0.4326963 0.86060345
C 0.19346811 1.0506268 -0.3105018
O -0.8749983 -0.74324805 1.286955
C 0.55370724 -0.9840928 -0.44270882
O -1.1327968 1.3968992 -0.24844517
H 1.5282054 -0.9881492 -0.92172015
H -1.5025399 1.0216739 0.5651734
H 0.46955526 1.0431228 -1.3695982
H 1.1390183 -0.1646271 1.4987143
H -1.1040577 -1.3630422 -0.16088173
H 0.9009187 1.668122 0.24853946
