12

O -1.27908323 -0.66871830 1.20503944
C 0.10038644 -0.43295546 1.20665305
C 0.53133888 0.74687233 0.34285406
O 0.87856309 0.39624139 -1.02039674
C -0.06849171 -0.05902914 -1.82649493
O -1.21392897 -0.30758995 -1.53546488
H 0.68942839 -1.31564807 0.90724431
H 0.37455943 -0.19394121 2.23957895
H -1.56637292 -0.68161881 0.27549130
H 1.46363210 1.17699037 0.71445506
H 0.34416769 -0.16762539 -2.83692271
H -0.25419918 1.50702212 0.32796339
