12

C -1.71524157 -1.10116092 -1.01117218
N -0.39971228 -0.49000882 -1.02370120
C 0.01321492 0.01550213 0.05525940
N 1.26104255 0.62673552 0.12628269
C 1.78066295 1.20612336 1.25206869
O 2.86283289 1.73954972 1.29809666
H -2.34696817 -0.60020646 -1.75272261
H 1.82552573 0.65142767 -0.71511571
H -1.62496014 -2.14631949 -1.32195444
H -0.53708974 0.02942569 1.00569355
H -2.22187687 -1.06508361 -0.03501643
H 1.10256973 1.13401537 2.12228127
