12

C -1.1247493 -1.0123961 -1.7002817
N -1.000097 -0.5841588 -0.32105428
C 0.05605129 0.0197986 0.008917867
N 0.24829425 0.4692477 1.3104595
C 1.3549953 1.1481514 1.7467347
O 1.5069116 1.5387394 2.8796349
H -2.0032961 -0.53436476 -2.143639
H -0.24743064 -0.7853802 -2.324735
H -1.3009405 -2.0926328 -1.7240841
H 0.89613795 0.24517964 -0.6616484
H -0.48880836 0.28442997 1.9818069
H 2.1029315 1.3033861 0.9478883
