9

N -0.78066059 0.10107252 -1.56082138
C 0.01558254 -0.00414566 -0.48773701
N -0.45192888 0.04765913 0.71573062
C 0.50656743 -0.07020371 1.71766584
O 0.25650819 -0.04752673 2.89883525
H 1.08003911 -0.13433401 -0.71882695
H -0.41162925 0.07812966 -2.49599443
H 1.55793077 -0.19070056 1.35949494
H -1.77240919 0.22004937 -1.42834709
