9

O 1.455321 -0.61456734 -1.8582863
C 0.4929702 -0.80220056 -1.012838
C -1.3919832 1.2430091 1.372553
C 0.59799886 0.05830966 0.16763216
C -0.46034676 0.7065918 0.8153011
H -0.5524538 -0.7748327 -1.4104244
H 0.45568287 -1.8038421 -0.42896003
H -2.2146873 1.7107168 1.8700984
H 1.6174982 0.2768152 0.4849241
