10

N 1.2324092 -1.230853 1.7366687
C 0.26716015 -0.61129326 1.3215959
O -1.4805604 1.0558478 -1.35122
C -0.5954799 0.44266352 -0.77363545
C -0.779999 -0.0358144 0.6064409
N 0.6232652 0.17105661 -1.3555923
H -1.7003454 0.21648489 1.1173737
H 1.2160213 -0.55353355 -0.97793394
H 0.5445073 0.21417749 2.0269957
H 0.6730217 0.33126384 -2.350693
