11

O 1.3958286 0.48672292 0.41459265
N -0.5826496 -0.35773212 1.5458151
C 1.0270201 -0.42114133 -0.6096008
C 0.03295362 0.04166452 0.35237673
O 0.45913094 0.27028358 -1.6975372
C -0.5885113 0.7808199 -0.83162177
H -1.3469173 -1.0004073 1.3736901
H 1.6695718 -1.2742903 -0.79395205
H -1.562043 0.38747963 -1.1359062
H -0.59234947 1.8734747 -0.7867179
H 0.0879655 -0.78687394 2.1688616
