11

O 1.37843984 -0.12554101 0.66427916
N -0.93982414 -0.31670547 1.36873130
C -0.01900315 -0.02048394 0.35526119
C 0.91020941 -0.68778045 -0.54974575
O 0.82330893 0.30222158 -1.54800243
C -0.12134377 1.04596385 -0.73406763
H -1.83459436 -0.60096393 0.98748741
H -1.09864200 1.08600720 -1.22228301
H 1.24010401 -1.68608133 -0.81296837
H -0.58353056 -1.04236421 1.97581328
H 0.24487574 2.04572750 -0.48450501
