11

O -1.2720428 -0.17360105 1.9334645
N -1.1689171 -0.76387936 0.67272717
C -0.24105482 -0.22962002 0.00517274
C 0.2941615 -0.46864995 -1.3786479
O 1.2574481 0.5853321 -1.1738772
C 0.79120725 0.85673434 0.1648105
H -2.0016415 -0.663016 2.3305469
H -0.39240626 -0.24898234 -2.2037053
H 0.7715508 -1.440741 -1.5455118
H 1.5625433 0.67280936 0.92095876
H 0.3991515 1.8736137 0.27406177
