11

O 0.56636756 -0.77368756 1.03059019
C 0.41196745 0.79043077 -1.32904080
N 0.18022401 -0.50543979 -1.22649382
C 0.08348245 -1.31451308 -0.16550538
C -0.19817472 0.08185469 1.66811962
C -0.84614688 0.87875926 2.29624285
H 0.31469993 1.24476484 -2.30440766
H -0.03019108 -0.98304337 -2.09589016
H 0.29005516 -2.36623885 -0.29526406
H 0.64148110 1.36118544 -0.44133273
H -1.41376521 1.58592758 2.86298203
