12

C 0.33607381 1.88904588 1.17621849
C 0.16159003 -2.07353483 -0.58665556
O 0.88992468 -2.90742942 -1.08216388
N 0.15367494 -0.75452237 -0.92932172
C -0.56573666 0.23453828 -0.16274881
N 0.19138568 0.64639821 1.01602302
H 0.93643023 -0.45463324 -1.49417547
H -0.83396569 1.07228561 -0.82557871
H -0.59809599 -2.31829069 0.17827980
H -0.06036638 2.64085722 0.48199396
H -1.49541833 -0.23038940 0.18404854
H 0.88450373 2.25567491 2.04407959
