12

C 1.0765613 -0.9836548 -0.8197029
C -1.4681286 1.073962 1.0009559
O 0.74476564 0.8539352 1.2810456
N 1.137615 -1.6793104 -1.8776301
C -0.24001925 0.548642 0.5042649
N -0.07835418 -0.2557226 -0.56981677
H 1.8306297 -0.8619771 -0.038593043
H 2.038918 -2.1468384 -1.926997
H -0.83474016 -0.35404563 -1.2333025
H -0.26630655 1.117274 1.9524847
H -1.5424349 2.15656 0.8939788
H -2.398506 0.5311753 0.8333124
