9

O 0.8804087 1.4204177 0.14738575
C -0.03263724 0.7742825 -0.4587453
C 0.17864388 -0.69701403 -0.36358914
O 1.3451052 -0.9554785 0.10709564
C -0.9964985 -0.54069674 0.7275766
N -1.7806855 -0.5948614 1.5705912
H -0.2906978 -1.3194183 -1.1418873
H -0.8255616 1.3016282 -0.97990173
H 1.521923 0.6111409 0.39147407
