9

O -0.23543496 1.8325628 -0.7348064
C -0.097092316 0.56998396 -0.32092264
N 0.2407429 -1.5351539 -0.4386336
N 0.31663197 -0.41461048 -1.1211444
N -0.16885206 -1.2544442 0.89074373
C -0.34158194 0.07365506 0.9532717
H -0.009971235 1.8590255 -1.675062
H -0.6398959 0.5818901 1.8574808
H 0.9354535 -1.7129089 0.5890727
