10

C 0.76602342 -0.08479452 0.73213077
C 0.51887545 1.23967815 0.31336010
N -0.37731165 1.59357612 -0.57475285
C -1.19227582 0.65486092 -1.20756100
N -0.91849837 -0.63253269 -0.77442333
C -0.00375685 -1.03778339 0.14313220
H 1.51805056 -0.33070187 1.47153848
H 1.11148216 2.04487672 0.75561205
H -1.48781335 -1.34590032 -1.21363031
H 0.06522441 -2.10127925 0.35459385
