10

C 0.820316 -0.094414756 0.7841721
C 0.44595134 1.136711 0.2597794
N -0.51176476 1.2613018 -0.6581841
C -1.0933019 0.12492348 -1.0444602
N -0.82365865 -1.1067299 -0.6179081
C 0.13924488 -1.2031894 0.2993615
H 1.6004449 -0.18515909 1.5307952
H 0.9303924 2.0557704 0.58523935
H -1.8776113 0.21676934 -1.7932385
H 0.36998704 -2.205983 0.6544433
