10

C 0.35431328 0.8262785 0.6250979
C -0.35990608 -1.4428428 -0.7486215
N -0.83143175 -0.18736905 -1.0881728
C 0.82407075 -0.45509264 0.9325816
N 0.49843654 -1.5709102 0.2869112
C -0.5108085 0.9403018 -0.44167098
H 1.5145652 -0.5816831 1.7674155
H 0.6631642 1.686728 1.2070024
H -1.2070712 -1.0883652 -1.7525506
H -0.94533235 1.8729547 -0.7879927
