9

O 0.04315950 -1.56686004 -2.45073598
C -0.42604037 -0.00129750 0.72445526
N -0.69668823 -0.98112780 -0.27216931
C 0.66670940 0.98165007 0.34758701
C -0.25568353 -1.20562549 -1.38128272
O 1.25013771 0.94975115 -0.70222479
H -1.33432734 0.57326598 0.95097165
H 0.89018671 1.74264089 1.12010847
H -0.13745375 -0.49239721 1.66329030
