12

N 0.32969007 2.002689 -0.33634344
C -0.5119339 -1.9752784 0.56884474
N -0.7148253 0.43911654 1.0449884
C 0.32726473 -1.5974984 -0.44744417
C 0.018015658 0.7051058 -0.0066058016
C -1.0998198 -0.85718787 1.1748585
N 0.4546522 -0.2630213 -0.835664
H 0.90313977 -0.020810522 -1.7087735
H -1.9467955 -0.9915811 1.8467969
H 0.0065514096 2.6648219 0.35574654
H 0.9587003 -2.278986 -1.0093107
H 1.2753603 2.17263 -0.64709324
