12

N 0.17182226 0.1467132 -1.1064316
C 1.3056182 -0.6983876 -0.74335927
N -1.7466305 1.1874192 -0.34235865
C 1.6043419 -1.1672983 0.5381307
C 0.66789526 -0.6061684 1.4702734
C -0.6059128 0.48332387 -0.07149092
N -0.38608617 0.16803749 1.2156342
H -1.7837095 1.6737231 -1.2241317
H 0.81620413 -0.80030036 2.530647
H 0.19534072 -1.163205 -1.1076069
H -2.1812716 1.6300323 0.45284718
H 1.9423882 -0.85388947 -1.6121535
