12

N -0.53670611 -0.09704663 -0.82264920
C -1.23379132 -1.13763658 -0.20700636
N 0.68975563 0.28256295 1.11364024
C -0.24379788 -0.47790712 1.74265154
C -1.15796629 -1.35516350 1.14456599
C 0.47609923 0.49516718 -0.16025415
N 1.25544551 1.38103717 -0.86555107
H -0.76032915 0.18508181 -1.76738389
H -1.81016713 -1.74663377 -0.89674803
H -0.22680722 -0.37444234 2.82705781
H 2.01851474 1.74793873 -0.31334123
H 1.52974981 1.09704186 -1.79498174
