11

O 0.17355576 -2.2418664 -0.22109833
C 0.28007752 -0.95411056 -0.20251827
C -0.848608 -0.21387208 -0.6542474
C 0.53151995 1.1176053 0.59331274
C -0.65039974 1.1171304 -0.06299174
N 1.1354203 -0.1665097 0.47364563
H -1.0128187 -1.6549426 -0.29906884
H 1.0448216 1.8990384 1.1349406
H 1.8288227 -0.53564143 1.1078076
H -1.2918565 1.978641 -0.1902025
H -1.1905351 -0.34547263 -1.6795793
