11

O 1.20968538 -0.95231787 1.85724783
C 0.57767436 -0.50809894 0.92651479
C -1.00766649 -0.34484537 -0.73233830
C -0.31378431 0.78675460 -0.87133435
C 0.77219481 0.81118475 0.17026490
N -0.50291935 -1.12095569 0.32086044
H -0.85534959 -2.01827245 0.61095633
H -1.85575783 -0.70664543 -1.29964641
H -0.49557563 1.55889078 -1.60424456
H 0.68896397 1.64796592 0.87221777
H 1.78253482 0.84633987 -0.25049833
