10

O 0.49996808 -1.56084916 0.75685000
C -0.44182907 -1.05721288 -0.06992611
C 0.45805482 1.30902721 0.17983416
O 1.58365805 0.95439851 0.47101795
C -0.55376979 0.39313394 -0.40466431
O -0.05909487 -0.58735695 -1.32851843
H 1.26715690 -0.96586319 0.73066499
H 0.10969172 2.33908534 0.38606937
H -1.35027914 -1.66015772 -0.05326009
H -1.51355684 0.83579499 -0.66806746
