11

N 0.4382784 0.015774334 -1.8538499
C -0.8761039 -0.28173146 1.6726696
O -1.4313335 -1.2119429 2.2021887
C 0.056086313 0.47626555 -0.5772733
C 0.1368123 -0.4123304 0.5898805
O 1.0105991 0.71178156 0.4466712
H -0.72740716 1.2332385 -0.61071646
H 1.1794838 -0.67396516 -1.8161225
H 0.5980248 -1.3952212 0.4799581
H 0.7056029 0.7666108 -2.4774044
H -1.090043 0.77152056 1.9439988
