10

C 1.83141459 1.18347107 1.00614378
C -1.08748801 -0.72300335 0.33685962
C -0.28408681 0.33076472 -0.35771947
C 0.88387704 0.80700827 0.37838206
N -0.44473737 -1.50294693 -1.60044706
N 0.06720091 -0.37728388 -1.60390461
N -1.18135353 -1.77051870 -0.38414835
H -1.54383642 -0.64118863 1.31616517
H 2.67992422 1.51834060 1.55899972
H -0.92091473 1.17535675 -0.65033089
