10

C -0.6109167 1.014565 -0.41606802
C 0.19709705 -0.85983485 1.0201349
C -0.9264187 2.1690469 -0.4516552
C -0.22629978 -0.39203286 -0.33641115
N 0.9851867 -0.7052594 -1.1186534
N 1.3736569 -1.3500915 0.98398286
N 1.8266191 -1.2380706 -0.38563648
H -1.0259018 -1.0292221 -0.73532647
H -1.2032903 3.1984353 -0.4898329
H -0.38973227 -0.8075359 1.929466
