11

N -0.8003567 -0.8224664 1.3167375
C -0.26266772 1.0399753 -0.5861913
C 0.8873645 0.8153891 -1.3840489
C -0.21203612 -0.06871906 0.22313009
N 1.5380524 -0.31139156 -1.0648676
N 0.83795136 -0.8444713 -0.06678207
H 0.2217758 -1.5303729 1.0082302
H 1.265557 1.4401208 -2.1840527
H -0.78776276 -0.36150634 2.223288
H -1.7211101 -1.215693 1.13653
H -0.96676767 1.8591354 -0.62197363
