10

N 0.60635626 -0.17294818 3.3015323
C 0.35180557 -0.03052318 2.1845932
C 0.04046816 0.13435887 0.79836607
N -0.6540802 1.1221193 0.28588223
C -0.70025057 0.86605364 -1.0527196
C -0.02461881 -0.29161793 -1.3492782
N 0.449004 -0.7553319 -0.15560931
H -1.2182394 1.5278744 -1.731663
H 0.156248 -0.8102374 -2.2786736
H 0.9933068 -1.5897478 -0.002430028
