12

O -0.66198236 1.4914302 -0.8167629
C 0.18590704 0.41472465 -1.1344804
C 0.48323384 -0.40252534 0.1219192
O 1.0380714 0.4550315 1.0836687
C -0.79113245 -1.013601 0.6709967
O -1.1347386 -0.82220316 1.8130735
H -0.25882632 1.9150763 -0.043195702
H 1.1380625 0.75468415 -1.5648528
H -0.3261272 -0.20009337 -1.8826247
H 1.1681216 -1.2292297 -0.13183133
H 0.5344772 0.29588532 1.8997755
H -1.3750665 -1.6591796 -0.015685827
