12

O -0.655189 -0.9476731 1.2971591
C 1.0039206 0.5778426 0.3932705
C -0.28728464 -0.27851442 -1.2721691
O 0.94558495 0.2930572 -0.9978647
C -0.41105062 0.26669544 0.9472911
O -0.51847994 -1.507553 -0.96483856
H -0.91575676 1.0589769 1.5162535
H 1.2822605 1.6295997 0.5132068
H -0.51728463 -1.5355704 0.19746232
H -0.6873872 0.081460565 -2.221929
H -0.9657126 0.42939037 -0.30777335
H 1.726379 -0.067712046 0.8999317
