13

C 0.89345610 0.38152994 -0.55327257
N -0.44416241 -1.54946984 -1.01987927
C -0.13984068 -0.41862433 -0.26194236
O 1.77192500 0.03553456 -1.56352973
C -0.82817638 0.84540875 1.59841496
O -1.03913643 -0.25685204 0.73952664
H -0.78603396 -2.31203483 -0.44786677
H 0.34046633 -1.81502410 -1.59809135
H 1.45604460 0.42902559 -2.39002523
H 0.15061960 0.78531882 2.09067759
H -0.89282481 1.79332293 1.05009333
H 1.13636246 1.27819889 0.00684475
H -1.61869943 0.80366537 2.34904953
