13

C 0.19141573 -0.2488095 -0.10737066
N -0.7971168 0.4421718 0.35538644
C -0.672567 1.6515906 -1.3402443
O 0.68230224 0.13474806 -1.206976
C 0.7814887 -1.4578283 0.5953776
O 0.29416382 -1.6322901 1.9077208
H 0.49420497 -2.3479033 0.02718818
H 0.661874 -0.92758447 2.4571676
H -0.45762372 1.4499496 -2.384676
H -1.7304516 1.7798083 -1.1464134
H 1.8768632 -1.388542 0.5474234
H -1.2815592 0.13277563 1.1907288
H -0.042994477 2.4119136 -0.8953123
