13

C -0.34544897 -0.18427007 -0.3318509
N -1.2167897 -0.70997024 -1.2859454
C 0.9680987 -0.054228596 -0.5565821
O 1.5230681 -0.5554437 -1.7196953
C -0.24704428 0.7146623 1.8394971
O -1.022323 0.1855691 0.78300506
H 0.25758407 1.6401939 1.5359863
H 1.5138621 0.14507025 -2.3882055
H -0.70634466 -1.2072946 -2.0019097
H -0.9429556 0.9283043 2.6520154
H 1.661584 0.3722971 0.16028894
H -1.9500885 -1.2687274 -0.8668474
H 0.5067982 -0.006162326 2.1802437
