11

C -0.8385978 0.071754925 -0.41073585
N 0.34539485 -0.00413639 0.23762731
C 0.58211607 0.66680485 1.4995806
O 0.25968444 -1.3036252 -2.045433
C -0.8562146 -0.7022679 -1.7390009
O -1.8276312 0.6674559 -0.03210383
H -0.6331002 -1.39035 -2.776085
H 1.084428 -0.5349982 -0.19975182
H -0.34607732 1.1704695 1.7768655
H 1.3806725 1.4092485 1.407618
H 0.8493255 -0.050356258 2.2814193
