11

N 0.3618004 1.0450385 0.10400492
C 1.4192258 0.26629588 0.07465284
O 1.3034476 -0.9738416 -0.14327599
C -0.56731856 -1.076509 0.081764236
C -0.9290667 0.2972724 -0.29939246
O -2.0116236 0.36318982 0.41480187
H 2.4200976 0.68213624 0.24603654
H -0.9133156 -1.9136925 -0.51898783
H -0.4834629 -1.2310269 1.1481504
H -1.0060489 0.5035867 -1.3860244
H 0.40626487 2.0375507 0.27826977
