11

N 1.09388880 0.00998525 -1.19004380
C 0.00930409 -0.62551227 -1.31703458
O -0.80072604 -0.87534119 -0.27384409
C -0.32239712 -0.40964703 0.98310861
C -0.22789017 1.10254656 1.03064904
O 0.40047587 1.68836912 1.87304845
H -0.43002742 -1.04235281 -2.22703570
H 0.64837974 -0.84667537 1.23210535
H 1.55300697 0.11531799 -2.08943660
H -0.84960125 1.62171347 0.27056918
H -1.07441358 -0.73840354 1.70791420
