11

N 1.5120854 -0.2235175 -0.5258654
C -0.9531672 -0.45174903 0.35446888
O -0.7162419 -0.030215813 -0.98410344
C -0.41371104 0.5394562 1.3666054
C 0.5789756 0.034314252 -1.3377377
O -0.2556535 0.26276 2.526832
H -2.043544 -0.4909317 0.44664207
H -0.5291237 -1.4410164 0.54666156
H 2.416296 -0.09999604 -0.9707671
H 0.65573674 0.33988252 -2.3844497
H -0.2516523 1.5610136 0.9617131
