13

C 0.01812443 -1.08926625 -0.00197535
N 0.57378160 0.42142106 0.27288747
C -0.49237983 -1.11996419 -1.25760880
O -0.53088269 0.04077618 -2.05061223
C -0.06877838 1.00932898 1.46358174
O 0.16363305 -1.82742565 0.95363208
H -0.95812708 -2.02078799 -1.64119568
H 0.03709017 -0.10711945 -2.81771825
H 1.58024971 0.33999095 0.41366418
H -0.01376706 0.26516796 2.26027447
H 0.37217300 0.94934277 -0.58154597
H 0.43561329 1.93089781 1.76032298
H -1.11673020 1.20763786 1.22629334
