13

C 0.5811137 -1.5830758 -1.1668315
N 0.23019293 -0.644142 -0.12645064
C -0.051257554 0.66010344 -0.3771043
O -0.07434324 1.1718186 -1.4818473
C -0.3349475 1.4767007 0.87866616
O -0.5631279 0.6944883 2.0375605
H -0.116698824 -2.4265208 -1.1830153
H 0.53092676 -1.0558432 -2.1197517
H 1.5981443 -1.9643672 -1.0222635
H 0.27206913 -0.9111773 0.8447092
H -1.1656983 2.1565301 0.65288895
H 0.5489101 2.090304 1.0829312
H -1.4552836 0.3351812 1.9805082
