13

C 1.582917 0.22717194 -0.53734016
N -0.44549033 -0.39835873 0.32051796
C 0.20259419 0.613611 -0.6668996
O -0.39928016 1.5978893 -1.0016762
C -1.5936545 0.13039722 1.0515692
O 1.8612242 -1.1459678 -0.79737484
H 0.7476254 -0.19266468 0.6919117
H -2.054277 -0.6737491 1.6307251
H -0.58956736 -1.3123124 -0.094960906
H 1.9349381 -1.2550809 -1.7531773
H -2.316853 0.5703281 0.36073032
H 2.3169703 0.92833 -0.9392292
H -1.247147 0.910406 1.7352037
