11

N -0.3567991 0.49446258 1.961102
C -0.15577747 0.18147461 0.61351174
C 0.52460057 -0.868985 0.05234118
N 0.34514663 -0.7120266 -1.3129052
C -0.42008892 0.38577214 -1.4939674
N -0.7376351 0.9556495 -0.3555758
H -0.7499844 1.4219757 2.043786
H 0.47388676 0.4119479 2.528746
H 1.0832189 -1.6905859 0.468973
H 0.71207625 -1.3110765 -2.0322742
H -0.7186439 0.73139143 -2.4737372
