10

O -1.71702102 0.58775819 -0.56876980
C -0.43400535 0.02975891 -0.60963538
N -0.39776356 -1.34647813 -0.07664789
C 0.56747332 0.76006632 0.21720449
C 1.12883508 -0.16346285 0.99007631
N 0.50872571 -1.45414076 0.77278825
H -2.32333523 -0.06526298 -0.94194181
H -0.05011803 -0.07211295 -1.64079901
H 0.78899055 1.81544921 0.14211932
H 1.92821871 -0.09157504 1.71560575
