10

O -1.7684013 -1.1074045 1.2107676
C -0.87740594 -0.5479724 0.6013492
N -0.86574864 -0.13617447 -0.7220958
C 0.3459859 0.4663855 -1.0520349
C 1.1140951 0.44761443 0.051580075
N 0.37389794 -0.16752362 1.0596403
H -1.6512668 -0.28276786 -1.331544
H 0.5464101 0.8519044 -2.038141
H 2.1140761 0.8142391 0.21489236
H 0.66835773 -0.33830065 2.0055864
