10

O 0.98118895 -0.5297085 1.7023562
C 0.4060234 -0.23881751 0.5137854
N -0.8480046 -0.6846741 -1.2630572
C -0.14579047 0.9916938 0.10383924
C -0.9111911 0.64033896 -0.9913323
N -0.08918007 -1.26765 -0.35240787
H -1.4938279 1.2881025 -1.634429
H 0.005401422 1.9570143 0.5621946
H 0.9904455 -1.4923165 1.7992276
H 1.1049348 -0.6639829 -0.4401768
