11

C 1.3819045 -0.46094468 -0.47256073
C -1.7568955 1.525051 0.9610328
C -0.08771128 -0.8353817 -0.30085087
O -0.39446107 1.3557686 0.60433614
C -0.95719314 0.21968292 0.26676774
N -2.659969 2.145688 1.3854947
H -0.5687929 -1.1299384 -1.2450352
H 1.9331869 -1.3058635 -0.89488214
H 1.5004582 0.39277387 -1.1465139
H 1.8417736 -0.20090535 0.48590767
H -0.23230022 -1.705931 0.356304
