11

N 0.022049932 0.068478405 1.6982193
C 0.013980632 -0.0860168 -1.8904842
C -0.7951874 0.16162305 -0.7758598
C 0.14050093 -0.021703998 0.22979714
N 1.2760586 -0.38079396 -1.5358967
N 1.3545359 -0.33962575 -0.20058282
H 0.9726259 -0.14131121 2.0271678
H -1.8425584 0.42214856 -0.7294069
H -0.24771473 0.99927807 2.0237007
H -0.62682945 -0.6187528 2.089222
H -0.26746196 -0.06332358 -2.9358766
