10

C 0.32074752 0.09659148 -0.70755243
C -1.0947502 0.45554465 -0.38573104
N -1.9146096 0.3455061 1.8945998
N -1.5429484 0.39783233 0.81831485
C 1.0079854 -1.0756773 -0.06512773
C 1.396635 0.09212186 0.3346956
H -1.8046314 0.76740736 -1.1425588
H 2.008532 0.7026487 0.9801242
H 1.0545067 -2.150415 0.009061083
H 0.5685327 0.36843964 -1.7358254
