10

C 0.33727378 -0.49279758 0.8769189
C -0.76072246 0.43322685 0.8135013
N 0.5791106 -1.625137 -0.11096585
N 0.28032488 -1.1697026 -1.1997786
C 0.34354922 0.87973064 0.21520734
C 0.09616795 0.020414103 -1.6195891
H -1.7369145 0.66417843 1.2070844
H 0.9094519 1.7911252 0.100322835
H 0.8025188 -0.7541158 1.8249265
H -0.8507602 0.25307807 -2.1076276
