12

C 1.4506972 0.45354682 0.1411776
C 0.14721026 -0.19568945 0.0019399665
C -0.9979378 0.4900585 -0.7140263
O 1.2303767 -0.55434626 -0.83551687
N -0.18235584 -1.1931033 0.98085594
H -0.5983258 -0.7545889 1.7975087
H 1.5986516 1.4614729 -0.24922563
H 2.0947762 0.15834165 0.9673105
H -0.6232573 1.2295934 -1.427284
H -1.5874735 -0.2492831 -1.2694857
H -1.6602634 0.9905055 0.00039559146
H -0.87209857 -1.8365077 0.60635
