12

C 1.48112559 0.15967802 0.33305861
C 0.10397831 -0.22089513 0.01904827
C -0.78006433 0.66648084 -0.83257051
O 1.19356977 -0.80001879 -0.67422256
N -0.54057994 -1.11774122 0.93661921
H 1.94151967 -0.24402813 1.23280194
H 1.87519951 1.11208348 -0.02450222
H -0.96341444 -0.59270953 1.69675100
H -1.28984066 -1.61777652 0.46913443
H -0.17716088 1.30585896 -1.48352131
H -1.42758182 0.04972307 -1.46742832
H -1.41675143 1.29934496 -0.20516825
