12

O -0.95937423 0.27669376 1.00353080
C 1.34705242 -0.36207633 0.90446126
C 0.00046336 0.00446820 0.31808137
O 1.31131620 -0.32572417 2.29551631
C -1.23369871 0.32146097 -1.64701092
O 0.01094652 -0.01240502 -1.01626140
H -2.00881840 -0.39871865 -1.37218832
H 1.61552162 -1.36335389 0.53814898
H 0.40699552 -0.08151768 2.54547686
H 2.09639341 0.33818605 0.50667820
H -1.55427084 1.32638928 -1.36042559
H -1.03252718 0.27659702 -2.71600767
