9

N -0.31405813 2.57444439 -1.13844155
C 0.61755728 0.77771656 0.34686877
O 0.45295467 -1.20929732 1.37214886
C 0.08749540 1.66242349 -0.40831332
O -0.11776564 -1.54201736 -0.81805032
C -0.11573389 -1.87383380 0.33513212
N 1.22453547 -0.04213708 1.07325003
H -0.58655374 -2.77533202 0.75456208
H -1.24843096 2.42803334 -1.51715663
