11

O -1.49525164 0.78778621 -1.51690517
C -1.00555700 0.08045541 -0.69750657
O -1.30636351 -1.21381716 -0.40121609
C -0.22733645 -1.30777620 0.56716788
C 0.11043355 0.16407507 0.35079105
C 1.75991450 1.57418475 -0.63994210
O 1.41496984 0.39445280 -0.20626788
H 0.54623894 -1.99489793 0.22161037
H -0.61039289 -1.58103866 1.55123604
H 0.88824416 2.24905577 -0.41437006
H -0.07489977 0.84752025 1.18540257
