11

O -1.8011948 0.65295595 -1.6463339
C -1.1572845 0.02729929 -0.86766875
O -1.2088605 -1.3182577 -0.6086361
C -0.21843308 -1.2404113 0.45480275
C -0.04541811 0.23512927 0.13670693
C 1.1233578 1.1010671 0.0681995
O 0.08826362 1.3004776 1.0269356
H 0.6312743 -1.8954731 0.25223935
H -0.6664158 -1.4599293 1.4257236
H 1.1865546 1.8553406 -0.71238345
H 2.0681562 0.7418019 0.47041452
