11

N 0.46894625 1.3578141 1.0800779
C 1.044391 1.4054399 -0.060273997
C 0.95439523 0.45385715 -1.191995
C -0.5737137 -0.72392774 0.46658066
C 0.04206693 -0.56355935 -0.873538
N -1.238899 -1.7510643 0.7741369
O -0.39151153 0.30720803 1.3553542
H 1.6954086 2.268774 -0.14700077
H -0.330367 0.36285797 -1.6060401
H -0.11542291 -1.4094983 -1.5410181
H -1.5552939 -1.7079012 1.7437164
