11

N 0.9660129 0.4629569 -2.1411815
C 0.5800661 0.24242608 -0.95686334
C -0.79815567 -0.11863432 -0.64246804
C -1.1531271 -0.34095138 0.6267449
C -0.12549688 -0.208938 1.6390954
N 1.0984938 0.10612473 1.4167264
O 1.4636308 0.3339334 0.104262374
H 1.9584175 0.69804615 -2.1645346
H -1.4775441 -0.18828762 -1.4830141
H -2.1645665 -0.60991085 0.9145917
H -0.34773123 -0.3767651 2.6866405
