11

N -1.2251976 -1.4979646 1.0178645
C -0.7353135 0.04296301 -0.83357483
C 1.1148325 1.3768101 -0.04703469
C 0.031558152 1.2994953 -0.9943174
C -0.41399047 -0.79289806 0.37071824
N 1.6510743 0.3721889 0.5984186
O 0.93390644 -0.77253294 0.7319764
H -0.4988482 -0.5222621 -1.7540168
H -0.7575226 -1.9921732 1.7794782
H -1.8155608 0.209643 -0.88882643
H 1.7150617 2.2767305 0.019313991
