11

C 0.055025738 0.07968688 -1.072057
N -0.795926 -0.11264539 -0.044662405
C -0.4879225 0.4589157 1.2576789
C 1.8877529 -0.56625736 -0.4418622
N 1.5705639 -1.3829938 -1.2408183
H -0.3794163 1.5431776 1.1597499
H -1.3085395 0.24305645 1.9449
H 0.45701006 0.048754986 1.6353002
H 0.47906163 1.0765872 -1.1549358
H -0.22970745 -0.3741666 -2.0116017
H -1.2479025 -1.0141158 -0.031691223
