10

O -0.82996723 -1.61531066 -0.80838950
C -0.43442954 -0.70922592 0.16989472
C 0.89252923 -0.02723217 0.02948164
C 0.66323627 1.26575853 0.23850408
N -0.74736625 1.49600227 0.44092831
N -1.38077465 0.42252015 0.35633483
H -0.85169043 -1.16076728 -1.66062999
H 1.82876468 -0.53571807 -0.15521980
H 1.33036376 2.11680713 0.26532945
H -0.47066596 -1.25283419 1.12376639
