10

O -1.3680346 0.2795236 -1.5786972
C -0.27023575 0.23688862 -0.88707393
C -0.627999 -1.1870514 0.8081253
N 0.25048202 -0.36528412 1.3100685
N 0.56353325 0.8604902 0.67153174
C 0.927349 0.67400044 -0.6977712
H 1.8658302 0.9225708 -1.1791108
H -0.65270865 -2.0845025 1.4593143
H 0.7173384 -0.4245101 2.208752
H -1.4055548 1.0878743 -2.115139
