11

N 0.055747036 1.7214961 0.31219837
C 0.62981457 -0.10524729 -1.0900096
C -0.19199905 -0.86603904 -0.059540473
C 0.69611925 1.3283824 -0.6357104
C -0.7684961 -0.13480255 1.036806
O 0.41387585 -0.85578454 1.2409043
H 1.6441768 -0.5080464 -1.1745003
H 0.17767817 -0.13908489 -2.0864012
H -1.6546854 -0.42279175 1.6037917
H -0.6320813 -1.8151034 -0.37078524
H -0.37014985 1.7970214 1.223247
