11

N 0.45894036 0.33724806 -2.9259586
C 0.35743454 0.6302584 -1.8132406
C 0.20787863 0.96709144 -0.39352116
C -0.59849817 -0.08794064 0.3414755
C 0.061204713 -1.1819826 1.0536966
O -0.47074854 -0.058765646 1.7488005
H -0.28265125 1.9420071 -0.3068094
H 1.1975293 1.0579066 0.06791982
H -1.6135086 -0.23874526 -0.025176324
H -0.46593186 -2.1214204 1.2080864
H 1.1483508 -1.245657 1.0447272
