12

N -0.39680110 -1.19399855 0.94298838
C -0.46653611 0.21190067 0.40410771
C 0.29172810 0.49023911 -0.84903221
N -1.68011492 0.96569673 0.46636865
C 2.27727041 -0.86362002 -1.49474262
N 1.25112305 -0.25643181 -1.22345420
C 0.18786186 -0.27317145 1.59049597
H -2.12732074 0.85627867 1.36867369
H 0.77098817 -0.15047599 2.49245840
H -2.33294339 0.66527595 -0.25051304
H 0.04288352 1.36816766 -1.43614163
H 2.18186129 -1.81986095 -2.01120902
