12

N -1.2710909 1.067282 1.1036726
C -0.2426477 0.30299154 -0.9463686
C -0.20416707 0.2970034 0.5440273
N 0.26905662 -0.9712558 1.2068892
C 1.0160142 0.052215748 1.2667205
N 0.44509923 -0.5195363 -1.6309123
C 1.2301502 -1.1856555 -2.2906346
H 0.9695961 -2.2251253 -2.4952104
H -0.8430694 1.047444 -1.4588761
H 1.9698788 0.34591648 1.6820624
H -2.170556 0.6382562 0.9106534
H -1.1682644 1.1504633 2.107977
