11

C -0.8799793 -0.8012931 -1.1896727
C -0.12710595 -0.06542072 -0.14009997
C -0.26291952 1.1336824 0.46757695
N 0.760147 1.3052505 1.3950511
C 1.4465187 0.2218706 1.2996151
O 0.9828559 -0.6647367 0.3952708
H -1.2590815 -1.7562404 -0.81305903
H -1.7307223 -0.19777314 -1.5159994
H -0.24872033 -1.0078642 -2.0596027
H -1.0167009 1.892852 0.3132822
H 2.3357084 -0.06032723 1.847638
