11

C 0.038553085 -0.06694389 -0.19673392
C -0.80527735 -0.26000386 1.0445017
C 0.4057998 1.340091 -0.56087434
N -0.23342119 -0.95610785 -1.4000537
C 0.83853656 -1.127266 -0.7816782
O 1.0707647 1.61821 -1.5286306
H -1.7588884 0.27211666 0.9533638
H -1.0215138 -1.320195 1.1960323
H 0.030451465 2.1237645 0.132479
H 1.7270759 -1.7426237 -0.79400355
H -0.29208097 0.11895856 1.9355977
