11

C 0.13698157 -0.40456329 -1.54998634
C -0.06709471 0.06152706 -0.19074795
C 0.41123565 1.44524467 0.13134088
N -1.02808995 0.00812129 -1.36811664
C -0.30584057 -0.87407629 0.97442783
O 0.63224796 2.27919093 -0.71232248
H -0.66700950 -1.84143266 0.61735132
H -1.05700747 -0.46137481 1.65725884
H 0.76765457 -0.83058282 -2.31750057
H 0.56223515 1.65622905 1.21229145
H 0.61468750 -1.03828311 1.54600401
