11

O -1.118866 1.2520623 -0.48763484
C -0.6140716 0.73203206 0.7179426
C 0.4609744 -0.30066603 0.45613468
C 0.42495283 -1.1343094 -0.7409966
O 1.2850536 0.005272288 -0.6657695
H -0.3422809 1.4222901 -1.0426066
H -0.19347619 1.5267347 1.3557037
H -1.447786 0.27440414 1.2588589
H 1.0093595 -0.65579516 1.3289669
H -0.40723664 -1.0293233 -1.4325876
H 0.94337696 -2.092702 -0.7480114
