11

O 0.00935736 1.65620412 -0.23953985
C -0.63741276 0.72686042 0.60097242
C 0.01813452 -0.64078349 0.53538514
C 0.82875989 -1.09322160 -1.70050835
O -0.12897607 -1.12895526 -0.82115489
H -0.17521591 1.41447283 -1.15652552
H -0.55311967 1.10815400 1.62437724
H -1.70626221 0.62405812 0.35930446
H 1.08737427 -0.57758373 0.76817724
H -0.48181650 -1.36706897 1.18122555
H 1.73917705 -0.72213675 -1.15171321
