11

O -0.057132203 -0.5636683 -1.2823744
C -0.68119484 0.45070776 0.7928588
C -0.14136578 -0.81061566 0.14313455
C 1.0552567 -0.2778531 -1.8928645
O 0.19389899 1.5426778 0.61889213
H -0.8176997 -1.6596962 0.27035928
H 1.8666666 -0.37201706 -1.1179538
H 0.1750108 1.8002727 -0.3120494
H -1.6858655 0.65772516 0.3938707
H 0.8621577 -1.0476955 0.5148788
H -0.7697329 0.28016242 1.8712478
