9

O 1.7479869 0.54164135 -1.6403804
C 0.893323 0.35385403 -0.8189154
N 0.2695334 -0.8143137 -0.44008794
C -0.6723378 -0.5567251 0.55637974
C -0.617543 0.75922793 0.78282374
O 0.3241965 1.3367933 -0.03704281
H 0.4842682 -1.7017664 -0.8604561
H -1.2794732 -1.3298286 1.0005372
H -1.1499541 1.4111171 1.457142
