9

O 0.3963377 1.261286 -0.37823552
C 0.77405214 0.61157656 0.77254605
N -0.55908626 -0.70763373 -0.34223107
C -0.4483117 0.43869963 -1.0941601
C 0.20466565 -0.5967408 0.82091475
O -0.9489167 0.72363293 -2.1465867
H 0.26628587 -1.3800682 1.5591369
H 1.4385334 1.1369959 1.4391494
H -1.1235603 -1.4877481 -0.6305336
