12

O 2.4740124 -0.6745055 0.5277034
N -1.4085007 0.22077517 -0.78832215
C -0.92614937 0.68451715 0.538599
C 0.4297119 0.065728486 0.301689
N 1.4319233 0.07155187 1.0908488
C 0.10931583 -0.42714652 -1.0301268
H -2.2143335 -0.38280895 -0.87343603
H 3.1809387 -0.57743746 1.1721846
H -1.4892248 0.1910085 1.3354334
H -0.72870547 0.5361301 -1.6251476
H 0.12158453 -1.4773992 -1.3103939
H -0.9805728 1.7695863 0.66096836
