11

N 0.30294492 -1.17182441 -1.59855078
C -1.44015266 -0.74788506 -0.03355250
O 0.71629884 0.52480509 -0.16426339
C 0.35494947 1.25958323 1.01289151
C -0.09742076 -0.44700117 -0.54089305
O -1.72353530 -0.64250031 1.13549698
H -0.23610485 -1.98383851 -1.83874513
H 0.31005257 0.59858554 1.88084904
H -0.61166637 1.75501173 0.87846631
H 1.14467534 2.00459200 1.13948195
H 1.27995873 -1.14952814 -1.87118120
