11

N -0.067434646 -1.6404412 0.13218959
C 0.20576058 -0.57571346 0.93112135
O 0.7902581 -0.62812734 1.9952779
C -0.24832523 0.74621415 0.360183
C 0.25362405 1.1957245 -0.9417367
O -1.0703136 0.69858474 -0.79993886
H -0.7229118 -1.5272428 -0.62454456
H 0.13030934 -2.5653584 0.48565352
H -0.5282066 1.4845167 1.1090357
H 0.32827267 2.2624903 -1.1474141
H 0.92896706 0.5493528 -1.4998271
