11

N -1.19416383 -1.64641256 -0.28369123
C -0.45641599 0.49143248 -0.16760173
C -0.26018984 -2.14174095 0.46786797
N -1.22472156 -0.28474155 -0.74586521
N 1.64314014 1.67702547 0.00966336
C 0.32277846 1.38899608 0.38491702
H 1.83890496 2.66911459 0.02952209
H -0.55202421 -3.20560390 0.58543178
H -2.00069076 -2.11453422 -0.68659322
H 1.92571434 1.26364273 -0.86462140
H -0.04233182 1.90282144 1.27097057
