11

N -1.079996 0.7367794 -0.65429384
C 1.2483679 0.69666183 0.37134477
C -1.7140014 -1.3102939 0.4679559
N 2.3454142 -0.03954048 -0.099427745
N -2.0279634 -0.24819754 -0.2072315
C 0.036917105 0.6782139 -0.12874325
H -2.9391673 0.039002255 -0.5524522
H 3.2016559 0.4986295 -0.085927226
H 2.198847 -0.47538194 -0.99590284
H 1.4119343 1.260558 1.2865934
H -2.6820092 -1.8364311 0.59808457
