10

N -1.2280008 -0.7065846 -0.29377416
C -0.62764305 -0.005725207 0.6966148
O -1.1182483 0.2024898 1.7857485
C 0.76457405 0.55675286 0.3793528
C 1.3059734 0.19058217 -0.92793125
N 1.6826171 -0.126462 -1.9718552
H -2.14007 -1.0955207 -0.11084208
H -0.78877556 -0.8806309 -1.1831466
H 0.7062999 1.6465161 0.45814446
H 1.4432738 0.2185827 1.1676888
