10

C -1.2205946 -0.3845517 -0.34831023
C -0.091602124 -0.8137975 -1.0434523
N 1.1357102 -0.43213996 -0.69883734
C 1.2211396 0.38361934 0.34780574
C 0.09070554 0.81434846 1.0433153
N -1.1352457 0.43248275 0.69869345
H -2.2151818 -0.70703435 -0.64461476
H -0.18214957 -1.4807318 -1.8978082
H 2.2149575 0.7063258 0.64596415
H 0.18226145 1.4814788 1.897244
