10

C -1.35770865 0.05445751 0.29948054
C 0.51016743 -0.79654909 -1.02217418
N 0.42116208 0.95212597 -0.01200912
C 1.36523345 -0.11804399 -0.25111931
C -0.50479901 0.72984720 1.07554703
N -0.52490750 0.19927821 -0.87208266
H -2.35012524 -0.36767711 0.33257284
H 0.47918892 -1.65840029 -1.67111845
H 2.40160025 -0.13577639 0.04942907
H -0.43981124 1.14073782 2.07147404
