11

N -1.0762144 1.338798 -0.8887886
C -0.10964718 -0.86972874 0.3375383
C 0.03427147 1.1542184 -0.3361507
C 0.3031645 0.47319815 1.0045604
C -0.0709122 -0.2916715 -1.0910083
O 1.0490494 0.4568001 -1.2707745
H 0.5879016 -1.7021265 0.46174204
H 1.3435172 0.5154219 1.3233787
H -1.116735 -1.1759462 0.62763685
H -0.5728785 -0.7176971 -1.9550278
H -0.37151697 0.81873363 1.7868936
