11

N 1.0297378 1.338861 -0.8886305
C -1.3207023 -0.38103306 0.76012784
C 0.95563155 2.316535 -1.5282621
C 1.0527228 0.1315041 -0.13039419
C -0.27249232 -0.59249485 -0.23607215
O -0.505188 -1.5457488 0.7756632
H -2.3624866 -0.5393779 0.48900068
H 1.8656721 -0.50187236 -0.50014013
H 1.2620869 0.3638523 0.9195187
H -0.55599487 -0.90472937 -1.2416129
H -1.1489869 0.31450403 1.5808015
