11

C -0.08147860 -1.05112259 -2.05325471
C 0.46961406 0.41743534 -0.30579802
C 0.25352218 -0.92820497 -0.75619073
C 0.41292439 0.60143371 1.12901142
O 1.41599992 0.18558436 1.69529561
N -0.61119845 1.27143908 1.74075186
H -0.01062350 -0.18200066 -2.70301664
H -1.22609955 1.81300621 1.15302718
H -0.44850948 -1.98345214 -2.47002486
H 0.23024541 -1.78910036 -0.08468664
H -0.40439632 1.64498198 2.65488503
