11

C 2.3748157 0.061132297 -0.19532068
C -1.3329018 -0.0673489 0.4631178
C 1.0908914 0.2611709 0.2460493
C -0.10670914 0.7248032 0.35728407
O -1.5463531 -0.82205904 1.3942239
N -2.2276795 0.116823725 -0.57068634
H 3.1352634 -0.2876948 0.4974276
H 2.6389837 0.14812826 -1.2464268
H -3.149818 -0.25633326 -0.39461687
H -2.1748343 0.97416705 -1.0932443
H 1.2983418 -0.8527894 0.54219246
