11

C -0.6904089 1.0088804 0.55892026
C 0.06918637 0.44308427 -0.53590256
C 1.581359 -1.2569553 -1.1165658
C 1.1328123 -0.4389658 -0.14733505
O -0.08271636 1.8986007 1.1410513
N -1.9841895 0.64576095 0.8162861
H -2.5275826 1.3109823 1.3455737
H -2.4686174 0.1228619 0.10303663
H 2.2456617 -2.0896368 -0.90922344
H 1.2468979 -1.0992891 -2.1392393
H 1.4775974 -0.54532367 0.8833985
