17

C -1.80352170 -0.15111619 -0.29500135
N -0.45867694 -0.08224798 -0.83466889
C 0.65231284 0.21367586 -0.07843999
O 1.75523454 0.41435241 -0.56851646
N 0.42864541 0.30940039 1.28277754
C 1.57355923 0.45490014 2.16256614
C -0.27694827 -0.42239765 -2.22961065
H -0.31217882 -0.26975103 1.64858556
H -1.92302305 0.58822228 0.50388322
H -2.05574927 -1.14853799 0.09335188
H -0.58172618 -1.46022071 -2.42549918
H 2.18468399 -0.45506741 2.23248401
H 2.21152826 1.25596198 1.78482545
H 1.21920505 0.72643471 3.15985758
H -2.51767178 0.09437477 -1.08773366
H -0.87337619 0.23727938 -2.87197155
H 0.77770329 -0.30526295 -2.47688969
