17

C -0.68404186 2.9201596 0.2548408
N 0.12114552 -0.8784879 0.062223203
C 1.2762539 -0.83481723 -0.8196301
O -1.6644014 0.14041527 1.0516722
N -0.47569138 1.332599 -0.49846643
C -0.18125527 -2.15094 0.6883727
C -0.7312739 0.17067057 0.27125636
H -0.9612263 2.5823388 1.2542459
H -1.2846125 2.068786 -0.7457856
H 0.35678962 3.2634597 0.26445502
H 0.23694536 1.3139585 -1.2131978
H 1.9765137 -1.6137401 -0.5081928
H -0.34687582 -2.9234626 -0.07467206
H 1.0038805 -1.0182017 -1.8685226
H 1.8003577 0.123382635 -0.73995066
H -1.0857196 -2.030621 1.284469
H 0.6432114 -2.4654992 1.3368828
