11

O 2.2683651 -0.5856179 -1.3646691
C 1.8181412 -0.08078038 -0.3701638
C -1.7370361 -0.42986262 -0.18591502
C -0.27527213 0.39356 1.1168072
N -1.5679228 0.082463026 1.0514857
C 0.3705959 0.070303656 -0.09564019
N -0.643891 -0.53409225 -0.9429776
H 2.4695017 0.3261029 0.4306476
H -0.16401325 0.65713423 -1.0829157
H -2.7071853 -0.7367392 -0.5585102
H 0.16871671 0.83752847 2.001851
