11

O 0.46125814 -1.0947105 -2.3370638
C 0.8081274 -0.14920157 -1.6614
C 0.26616624 0.106110536 -0.33666164
C 0.47323513 1.0735089 0.6217673
N -0.30953982 0.8392764 1.7140986
C -0.9866071 -0.25615662 1.426788
N -0.6764893 -0.7356691 0.20502838
H 1.5620248 0.5783026 -2.0166435
H 1.1426489 1.9207797 0.5802722
H -1.707432 -0.731596 2.0757346
H -1.0333923 -1.5506448 -0.27192014
