10

C -0.78502402 0.38880347 -0.35796847
C -0.10063486 -0.90490694 -0.63520125
N 0.53091688 0.33410921 -1.07017555
C 1.06679860 -0.39152164 0.11055208
N 0.68800604 0.28437396 1.35232038
C -0.45428821 0.76021073 1.05434719
H -1.63666895 0.74089854 -0.92625388
H -0.30488772 -1.74177944 -1.28664570
H 2.06340333 -0.81298833 0.02573590
H -1.06762060 1.34280019 1.73328957
