10

C -1.0831773 0.24457407 -0.25242206
C -0.31775054 -0.5979454 -1.0495138
N 0.94952023 -0.8906559 -0.763201
C 1.4445083 -0.32587296 0.33732504
N 0.8114704 0.49348804 1.1737748
C -0.4555173 0.773031 0.8684437
H -2.1140065 0.47751698 -0.49201676
H -0.7326263 -1.0541674 -1.9464918
H 2.4794877 -0.56156826 0.57820046
H -0.9819082 1.4415996 1.5459017
