10

C 1.0686222 -0.33104223 0.22809583
C -0.20810288 -1.0735103 0.19165955
N 0.34879702 -0.55724823 -1.051947
C -0.27080542 1.322779 0.2699376
N 0.90278304 1.0509266 0.68082833
C -0.83149594 0.1260513 -0.43393314
H -1.7635337 0.08929011 -0.9836354
H -0.52077055 -2.097108 0.33637086
H -0.76116717 2.2792244 0.41590816
H 2.0356734 -0.8093626 0.34671515
