11

C 1.25282124 0.68682717 0.58584031
C -0.45252751 -0.42852860 -0.90273247
C -0.13197394 0.06637551 0.48304246
O 0.25795939 -0.38015637 -1.86431675
C -2.83168846 -1.47168804 -1.07019257
N -1.74983844 -1.00117914 -1.00383816
H 1.35174675 1.54758991 -0.08113045
H 2.03028280 -0.03298609 0.31476276
H 1.43699307 1.02241045 1.61033158
H -0.24534892 -0.78671786 1.16430787
H -0.91842595 0.77805300 0.76392479
