11

C 0.48826557 1.1526794 -0.90411747
C 0.27824855 -0.94439155 0.48378313
C -1.2731476 -2.4127467 1.9716455
O 1.4067883 -1.278877 0.26862422
C -0.40916228 0.29513022 -0.025244322
N -0.5610347 -1.7524126 1.2985667
H -1.3111062 -0.029508885 -0.5590918
H 0.8238668 0.6002301 -1.786002
H -0.76599246 0.8493669 0.8523881
H -0.05540687 2.0400987 -1.2403094
H 1.3786808 1.4804312 -0.36024237
