11

C 1.2978686 0.6373112 0.57505935
C 0.10159647 -0.2894391 0.41321173
C -0.74562806 0.050245546 -0.7840395
O -0.54074746 0.94665873 -1.5594224
C -1.9291719 -0.834047 -0.9768073
N -2.8449934 -1.522309 -1.1191826
H 1.9470832 0.5988402 -0.30392355
H 1.8815306 0.34228408 1.4512445
H 0.9763552 1.6745223 0.705497
H -0.55482703 -0.26643452 1.2941284
H 0.41093382 -1.3376325 0.30423376
