11

C -2.0265815 1.5893643 -0.43451685
C 1.2488179 -0.8248929 -0.009377695
C -0.19493596 -0.40146455 -0.25589085
O 0.24389073 1.7769146 0.7340817
C -0.4749194 0.9845542 0.2380017
N -2.2572844 1.1544963 0.6480236
H 1.4848676 -0.80548924 1.0582122
H 1.400532 -1.8432528 -0.37992814
H -0.9145127 -1.0586689 0.24576735
H 1.9468216 -0.16013286 -0.52522546
H -0.45669594 -0.41142792 -1.3191475
