9

O 1.5840869 -0.27941227 -1.5366143
C 0.6226056 -0.1476528 -0.6112868
N 0.34866878 0.99260676 -0.014761315
N -0.6679342 0.6249872 0.80317014
C -0.93492913 -0.6796727 0.6517222
N -0.13026011 -1.2110966 -0.24460432
H 1.9902073 0.5897545 -1.6543947
H -1.102804 1.3056686 1.403995
H -1.7096411 -1.1951828 1.2027744
