9

O -1.65704261 -0.92176082 1.24923195
C 0.14532227 -0.91036687 -0.41025435
N 0.62740326 1.27106853 -0.18651473
N -0.36769942 0.93539684 0.62709791
C -0.76894972 -0.41960536 0.58311347
N 0.89577724 0.14388841 -0.78434545
H 1.63473188 0.15195621 -1.46923883
H -0.77170360 1.64643654 1.21673195
H 0.26216064 -1.89701358 -0.82582204
