9

O -0.19811943 -0.68995583 -2.011215
C 0.6367909 0.87986624 0.9337562
N 0.66307163 1.5052832 1.9712362
N 0.6613803 0.41440782 -0.21526527
C -0.3293275 -0.4641257 -0.68532085
N -1.2173582 -0.9858768 0.045138218
H -1.8190948 -1.5819935 -0.5176766
H 1.04703 1.0945483 2.8116038
H 0.55562717 -0.17215365 -2.332257
