11

C -1.3064978 0.10390811 -0.78260463
O 0.06983629 -0.015219993 -1.0844585
C 0.8187606 -0.53184247 -0.018203322
C 1.024629 0.49292246 1.0840676
O 1.2845501 0.20801485 2.225062
H -1.7486348 -0.87334394 -0.53888285
H -1.4866385 0.791922 0.05752001
H -1.795569 0.5027962 -1.6717632
H 1.8099389 -0.7779707 -0.4184981
H 0.383799 -1.4488722 0.4067007
H 0.9458262 1.5476857 0.7410605
