11

C 0.99444175 -0.6401926 -0.124351084
O -0.91104025 -0.15475659 -1.6977301
C -0.3209336 0.8591062 0.7238888
C -0.48341408 -0.5630214 -0.5215088
O 0.87876874 0.1717212 1.0380055
H -0.124388404 1.9008285 0.41426033
H 1.3710527 -1.6395807 0.11648204
H -1.0579327 0.8236419 1.530285
H 1.6104639 -0.17086576 -0.90262735
H -1.1170001 -1.2400143 0.0786375
H -0.84001786 0.6531337 -0.65534186
