11

C 1.0108857 -0.8107324 -1.1416125
C 0.21559276 -0.16523506 -0.059482817
C -0.8831894 0.62998223 -0.05335217
C -1.092392 0.88433975 1.3317522
N -0.20094965 0.29423773 2.0763676
O 0.6279025 -0.37198648 1.2027519
H 1.0079436 -1.899074 -1.0343567
H 0.584563 -0.554038 -2.1139793
H 2.0499997 -0.47069776 -1.1148252
H -1.4558104 0.9830752 -0.89763504
H -1.864546 1.4801286 1.8043725
