10

O 2.3646894 -0.3930218 0.27469033
C 1.1734585 -0.19513232 0.1353619
N 0.32964885 0.5729629 0.9236673
C -0.97475153 0.5506095 0.43555593
C -0.97692055 -0.22554745 -0.661413
N 0.32664472 -0.6814222 -0.8488285
H 0.6605939 1.0641739 1.7356129
H -1.7767311 1.088751 0.91393256
H -1.7817198 -0.49590722 -1.326102
H 0.6550877 -1.2854663 -1.5824771
