10

O -0.6890292 -1.6396368 1.4513646
C -0.3134711 -0.7679507 0.7039742
N -0.9095256 -0.39305484 -0.54014647
C -0.2418355 0.86997336 -1.1600047
C 0.77907956 1.002012 -0.27297652
N 0.7219534 0.112632014 0.8108331
H -0.37031245 -0.41513163 -1.5874656
H 1.3284974 0.10744959 1.6169639
H -1.8890024 -0.59675914 -0.6962157
H 1.5836462 1.7204659 -0.32632682
