10

O -1.9889817 -0.7712868 -0.6273874
C 0.8032934 0.83849007 0.73067486
N -0.6266432 0.658453 0.6235815
C -0.94483197 -0.30818978 -0.24367583
C 1.5541165 0.024286252 -0.032682266
N 0.41122207 -0.7765053 -0.7179058
H 0.51475716 -1.773078 -0.5258625
H -1.3413268 1.1742914 1.1128399
H 0.47411698 -0.67283994 -1.7311256
H 1.1442775 1.606379 1.4115431
