15

N -0.00149928 0.14347532 -1.08547924
C -0.61829235 -1.24679226 0.60978957
O -0.06027591 -0.06597108 1.18557033
N 1.93859870 0.71419273 0.07747655
C 0.51521223 0.71326478 0.14623533
C -1.09802856 -0.75435912 -0.74980962
O 0.19446244 2.04668116 0.41095950
H -1.41040245 -1.61242726 1.26701212
H 0.15203014 -2.02072478 0.49508772
H -1.19322644 -1.55634558 -1.48650611
H 2.27170581 -0.24301392 0.03199098
H 2.32730199 1.17809046 0.88834442
H -2.07110357 -0.24554742 -0.65255517
H -0.20198011 0.87802619 -1.75382618
H -0.74450260 2.07145090 0.61570959
