15

N -0.47607723 -2.2390628 1.2988173
C -0.31820485 -0.9260928 0.903902
O -0.7958761 0.0010401778 1.54757
N 0.41849047 -0.7597909 -0.2399909
C 0.9322905 0.53870517 -0.67266273
C -0.13384885 1.5833218 -1.0152704
O -0.60967743 2.3020346 0.08896569
H -1.1927265 -2.344336 2.002585
H -0.4763062 -2.9552147 0.5896731
H 0.96579635 -1.557998 -0.5264688
H 1.5278528 0.339486 -1.5692161
H 1.5979182 0.97219706 0.08618034
H -0.93991303 1.0839475 -1.5765692
H 0.321131 2.320556 -1.6875014
H -0.8208491 1.641207 0.7699859
