15

N -0.25578934 0.31769198 -1.0161182
C -1.3811624 -0.4396206 -0.4858632
O 0.23863344 -0.24889997 1.1378336
N 1.9929948 0.3786629 -0.3985284
C 0.6650138 0.5898818 0.07328801
C -0.67032456 -1.2171104 0.6147577
O 0.6921381 1.8955488 0.5687237
H 2.1083832 -0.5984313 -0.6460083
H -0.47523266 1.1739904 -1.5111362
H -0.12366112 -2.0729883 0.19743659
H -1.8201578 -1.0851544 -1.2510663
H -1.3198483 -1.5565114 1.4246927
H -0.13743046 2.0335076 1.0345293
H -2.17604 0.19272037 -0.057450704
H 2.6624832 0.6367123 0.31490964
