9

O -0.29960283 0.09497791 2.40226439
C -0.28524504 0.21066956 0.02592770
C 0.29943993 0.36680908 -1.13425367
C 1.23470651 -1.55120082 -2.55304426
C -0.88148623 0.08123754 1.18138783
N 0.79257671 -0.69552065 -1.87867194
H 0.44000646 1.33944479 -1.59816457
H -1.95806318 -0.05233646 1.25313684
H 0.65766766 0.20591901 2.30141780
