9

O -0.0013751221 1.9645617 -1.4177984
C -0.19156489 -0.11449827 -0.2767882
C 0.36036244 -1.2490511 2.9595218
C -0.67446524 0.8773589 -0.9770531
C 0.2892093 -1.1253036 0.40099174
N 0.3096219 -1.1610374 1.7881447
H -1.7182928 0.9034872 -1.2799544
H 0.92030066 1.9138775 -1.1231976
H 0.7062036 -2.009395 -0.073866814
