9

O 0.45882850 1.51355770 -0.14722248
C 0.27245504 0.16654826 -0.56335643
C 0.55767267 -0.87893233 0.40083713
C 0.79507179 -1.77013605 1.17353268
C -0.86608863 1.07881284 -0.38687846
H 0.61418813 -0.03307572 -1.57881377
H -1.48760950 0.97662898 0.50081714
H 1.00661275 -2.55340098 1.86654832
H -1.35113046 1.49999725 -1.26546408
