10

O 0.9571115 2.0915756 -1.1613083
C 0.6723508 1.114782 -0.5480174
O 1.127484 0.7541892 0.7090182
C 0.49843296 -0.5381146 0.5677989
C -0.96617866 -0.36818585 0.5076135
C -0.12086056 -0.14751685 -0.7430195
H 1.0754112 -1.4072994 0.84465826
H -1.5559787 -1.2793865 0.47443005
H -1.4299601 0.47339576 1.0155033
H -0.25781265 -0.6934398 -1.6666772
