10

O 0.9355486 -0.6940261 -1.4491252
C 0.34307307 -0.034657333 0.7751581
O -1.8201972 0.567454 -2.086186
C -1.3524758 0.49650285 -1.0253985
C -0.9569782 0.49181458 0.23695113
C 1.227059 -0.6466538 -0.2781499
H 0.93135595 0.7542675 1.2655914
H 2.187248 -1.0597421 0.0893309
H 0.18402529 -0.7999815 1.5478636
H -1.6786586 0.9250217 0.9239644
