10

O -2.3088546 -0.061473135 1.1653898
C -0.41290304 -0.75314313 -0.2321924
O -0.21674073 1.3902544 0.8683693
C 0.68281925 0.10908265 -0.85423887
C 0.7340558 0.6132544 0.51309854
C -1.3290541 -0.059006833 0.53605187
H 0.3710245 0.8203674 -1.6205776
H 1.5317656 -0.50226325 -1.1605045
H 1.4885448 0.25530508 1.2207618
H -0.5406573 -1.8123776 -0.4361582
