10

O 0.07175233 2.60300511 -1.09841239
C 1.20035576 -0.71309309 0.22769835
O 1.83472644 0.21743938 -0.20829335
C -0.30109575 -0.72001866 0.33269339
C -0.94540639 0.53519317 -0.18332966
C -0.33300968 1.60560095 -0.66204080
H 1.70546770 -1.63228969 0.58489092
H -0.65819262 -1.61102428 -0.20273341
H -2.02896857 0.61494385 -0.18000214
H -0.54562942 -0.89975718 1.38952891
