9

O -1.76886479 0.29867785 0.86193913
C 0.98899090 -0.03449324 -1.08647223
N 1.52363254 -0.42912438 0.04636171
N 0.46936908 -0.32696975 0.90040204
C -0.60622509 0.11441536 0.23145342
N -0.32982924 0.31500384 -1.03427250
H 1.56817902 0.00939133 -1.99867038
H 0.55763357 -0.56650666 1.87476326
H -2.40288594 0.61960557 0.20449552
