10

O 0.79543793 1.9303123 -0.7607893
C 0.3543723 0.8885324 -0.3780845
C -0.9288838 0.44291973 0.32672754
N -0.5064993 -0.95533407 0.0968746
C 0.8336251 -0.56491524 -0.38957268
H -0.9581337 0.7676617 1.3767395
H -1.8720962 0.7250072 -0.1535859
H -0.4914727 -1.5257893 0.9336678
H 1.6624807 -0.7278726 0.31277138
H 1.1111696 -0.98052174 -1.3647485
