10

O 1.2127678 -1.3455577 -0.104381025
C -0.579865 0.32623777 -0.9453229
C 0.19480741 -0.4520619 0.019434907
N 0.29940572 1.0185195 0.03703531
C -0.17278965 0.25968277 1.2288117
H 1.5883713 -1.2596127 -0.989049
H 0.54873496 0.26068214 2.0433893
H -0.21122688 0.41050804 -1.9671407
H -1.6622227 0.4257781 -0.84303874
H -1.217983 0.355824 1.520261
