13

N -0.25289195 -0.62828970 -1.90147793
C 0.18686843 -0.41653154 0.60948506
C -0.51012681 0.09259268 -0.68253653
N -0.54507449 -0.27762006 1.84152093
C 0.60634057 0.81871114 -0.07769968
N 1.34555633 1.82712490 -0.20169195
H -0.19942482 0.01467864 -2.68275350
H -1.00410480 -1.28511842 -2.08359704
H 2.01698159 1.86453805 0.56997685
H 0.82532834 -1.28780001 0.44175272
H -1.50100488 0.51301769 -0.49527903
H -1.05308240 -1.13113353 2.04532366
H 0.08463482 -0.10416986 2.61697599
