13

N -0.6064583 -0.8646979 -1.4397416
C 0.4396574 -0.04313739 -0.8412723
C -0.082392246 0.54823315 0.48059246
N -0.5251699 -0.5322444 1.3502007
C 0.9876878 1.3202244 1.1383504
N 1.8223996 1.9430552 1.6414441
H -0.5160564 -0.8762198 -2.4508367
H -0.51704913 -1.825525 -1.1288344
H 0.6893343 0.7837556 -1.5157647
H 1.3635577 -0.6006952 -0.62942195
H -0.88430315 1.2614151 0.23181155
H -1.3460541 -0.9442866 0.9154132
H -0.82515365 -0.16987717 2.2480588
