13

N -1.2157754 -0.573262 -1.505849
C 0.40804097 0.8806125 -0.3193717
C -0.8063473 0.06604835 -0.28302023
N 0.8887163 1.9656223 -0.732188
C 0.5183972 -0.41903496 0.36819082
N 0.5782113 -0.4085873 1.8066839
H 1.8698214 2.042125 -0.45064852
H 0.32371062 -1.3185533 2.1744938
H -1.5556264 0.37155777 0.45108244
H -1.6435925 0.10313543 -2.1272326
H -1.8980489 -1.2977058 -1.30939
H 1.014759 -1.2104796 -0.1993603
H 1.5177339 -0.20147821 2.1266096
