11

C 0.15747312 -0.5688473 -1.0966312
C 1.4759982 -0.50790465 -0.35918012
C -1.0260375 0.90758026 0.65486056
C -0.60175747 -0.500926 0.282336
O -0.9453658 -1.5039612 0.8333879
N 0.455149 -0.51440114 -2.2477887
H 1.8962183 -1.4323988 0.013436196
H 2.0528867 0.4051551 -0.34593165
H -0.84321135 1.0603756 1.7201748
H -2.104519 0.98523676 0.4823538
H -0.5168346 1.6700915 0.062982276
