12

N -1.53667992 -1.03078877 -1.14487366
C -0.63084964 -0.22311696 -0.55434999
N -0.38129002 -0.28523980 0.76680068
C 0.67169135 0.75441149 0.98247570
C 1.02380874 -0.69728152 1.09868629
C 0.85166434 1.29548080 -0.37317056
N 0.06976859 0.71177325 -1.25027627
H -1.51309161 -1.05822282 -2.15220550
H -1.74581321 -1.89630897 -0.67078914
H 0.56977174 1.41960696 1.83767234
H 1.07564127 -1.06516426 2.12828861
H 1.54537804 2.07485080 -0.66825833
