12

N -1.5271657 -1.097075 -1.342625
C -0.6202114 -0.45162028 -0.5525143
N -0.69172204 -0.6957908 0.76734334
C 0.22096825 -0.08906429 1.5158256
C 1.1959257 0.75427157 0.99505377
C 1.1579666 0.9346151 -0.38245434
N 0.26308516 0.34792557 -1.1712203
H -1.6482579 -0.74947065 -2.2792892
H -2.3244603 -1.5019614 -0.8820881
H 0.1654868 -0.27989122 2.5874422
H 1.9319726 1.2417986 1.6217487
H 1.8764119 1.586263 -0.8772222
