12

N -0.77109176 0.89866227 -0.8200629
C -0.22516105 0.3240072 1.3527329
N 0.18701868 -0.77401245 0.42503628
C -0.8108297 1.3050941 0.4267827
C -0.16501386 -0.3183232 -0.7915157
C 1.2297544 0.06387687 1.106852
N 0.056466382 -1.038542 -1.9112531
H -0.73796827 0.053513233 2.273654
H -1.2268101 2.2709553 0.6909901
H 1.7215283 -0.5142519 1.8955413
H 0.7917515 -1.7276919 -1.8660171
H -0.04964451 -0.5432877 -2.7827404
