11

N 0.008727412 1.2742394 -1.0823082
C -0.08091436 -0.9901943 -0.16218103
O 1.5228313 -0.32886872 -1.6886877
C 0.09667417 -0.75694484 1.2877527
C 0.55506814 0.032161184 -1.0406656
O -1.208891 -0.20991136 1.0015315
H 0.0801458 -1.6042594 1.9765667
H -0.73154914 1.5303955 -0.4466016
H 0.439847 1.9688218 -1.6716641
H 0.75601476 0.050993755 1.6050446
H -1.4379541 -0.96643305 0.2212128
