11

N 1.6181669 -0.066278234 -0.29343387
C 0.476874 0.17834193 -0.98930895
O 0.36982992 0.14093849 -2.1976526
C -0.71533966 0.46714225 -0.11443334
C -1.1601729 -0.5186494 0.8732986
O -0.46834475 0.6572509 1.2736768
H 1.6566554 0.1833551 0.6823312
H 2.4751675 -0.18200736 -0.81523484
H -1.445323 1.1399668 -0.56071657
H -2.2108583 -0.5569405 1.1548945
H -0.5966549 -1.44312 0.9865789
