11

N 1.14609198 -2.08495470 -0.88584780
C -0.11412345 -0.00490160 -0.67905205
C 0.27189395 -0.48348281 2.78958292
N 0.00505709 0.08245463 1.72866874
C -0.41305999 0.55867833 0.62773466
N 0.56321930 -1.11222819 -0.77044646
N -0.57723578 0.64512939 -1.84571637
H 0.16213346 0.99903221 -2.44068388
H -1.23445407 0.09664925 -2.38471859
H 1.22388884 -0.14386941 3.22652368
H -1.03341157 1.44749267 0.63395526
