11

N 1.3873752 0.4195264 -0.2168938
C -0.122507095 -2.0581255 1.9592259
C -0.7995694 -0.45740905 0.16809689
N -0.47959676 -1.211621 1.1388948
C 0.12384275 0.4243219 -0.52799034
N -0.3539224 1.2714355 -1.5537866
N 2.5012896 0.4338687 0.024443941
H -1.8250895 -0.4480272 -0.18273956
H 0.036935277 1.0695673 -2.4647033
H -0.19599612 -1.702397 2.9987476
H -0.27276158 2.2588599 -1.3432958
