11

N 0.99072856 -0.84705997 -1.5278802
C 0.24809097 -0.22207989 -0.55591065
C 0.58823127 -0.27674875 0.8137897
N -0.117593884 0.3816216 1.7034707
C -1.1515315 1.0876142 1.2085356
N -1.5087787 1.158642 -0.061387073
N -0.80119425 0.48414397 -0.96243596
H 1.5283221 -1.6579945 -1.2652614
H 0.5421781 -0.9022262 -2.4300258
H 1.4367046 -0.8596402 1.1655339
H -1.7551575 1.6537275 1.9115713
