10

O 1.6630884 -0.13173847 -1.4486912
C 1.1598246 0.78847545 -0.8432684
N 0.278818 0.6468203 0.18910842
C -0.21485348 -0.66153795 0.57368684
C -1.6505457 -0.81243426 0.28251296
N -2.781587 -0.9087362 0.07579777
H 1.3815699 1.8492833 -1.0554137
H -0.1459925 1.4712645 0.5870923
H 0.35751295 -1.3940662 -8.9441455e-05
H -0.04783507 -0.8473307 1.6392646
