10

O 0.02369644 -1.91309171 0.41074116
C 0.00718677 -0.57954302 0.14577567
C 1.81323414 0.99582319 0.89911464
N -1.58210958 2.18351622 -1.01569733
N -1.42052711 1.09272540 -0.77085418
C -1.22581292 -0.15724087 -0.48891774
N 0.97952064 0.18869594 0.39837077
H 0.78842163 -2.10533522 0.97104708
H 2.63357109 1.14921459 0.16966265
H -2.01718082 -0.85476439 -0.71924291
