9

O 1.07596307 -1.26557189 -0.69513573
C 0.32359167 -0.32110338 -0.10694977
N -1.32761973 1.12875295 0.25771181
N -0.81051988 0.21618151 -0.60078365
N -0.54100829 1.16776590 1.27702983
C 0.49204665 0.29734525 1.10541002
H -1.30194808 0.02132730 -1.45900928
H 0.81364932 -1.40865044 -1.61255592
H 1.27584523 0.16395282 1.83428232
