9

O -0.88146025 0.6399571 1.4338986
C 1.2117429 0.14607903 0.25059035
N -0.6298415 -0.32649457 -0.74921215
N 1.4796648 -0.38240635 -0.9754639
N 0.3813588 -0.67175865 -1.5831546
C -0.15058686 0.18489952 0.40298012
H -1.8123705 0.40382513 1.3412294
H -1.5809486 -0.4542603 -1.0575825
H 1.982441 0.46015912 0.93671477
