12

C 1.76246503 -0.24488689 0.22588349
C -2.23563530 0.23560707 -0.83452672
N 0.67286969 0.04191229 1.15807733
N -0.92134237 0.09548530 -0.41470585
C -0.62701671 0.21802332 0.91439921
O -2.57036906 0.14182772 -1.99040204
H 1.88034072 0.56216691 -0.50843636
H 2.69225782 -0.33120206 0.79117642
H 0.93132343 0.12428470 2.12840677
H -2.91173662 0.43899696 0.01094730
H -0.26777232 -0.09020769 -1.17814388
H 1.59461566 -1.19200784 -0.30267579
