12

C 0.2980818 -0.37879172 -0.3551927
C -0.3059668 1.1318346 0.000398843
C 0.9201052 -0.4981474 0.97919035
O 1.2767223 -0.18974623 -1.1671158
N -0.74184257 -1.2997531 -0.71966213
H -1.1025531 1.0751752 0.74817026
H 0.5117006 -0.0032365716 1.8573438
H -1.1307667 -1.0374343 -1.6180835
H -0.7046498 1.4331434 -0.96898395
H -1.480348 -1.3779607 -0.030708367
H 0.46947 1.8404963 0.29696256
H 1.9900475 -0.6955797 0.97768074
