11

C 1.0906484 1.712074 1.2564327
C -0.21430348 -0.48954052 0.6202517
C -0.9395362 -0.88662905 -0.58145356
C 0.25199932 0.68470263 0.8894674
O -2.0287616 -0.4245084 -0.8723975
N -0.3001418 -1.8319374 -1.3554934
H 2.1540942 1.6908455 1.0237335
H 0.6810192 2.6238546 1.6808479
H -0.20115645 1.5973442 0.32145733
H -0.8826691 -2.255257 -2.0641372
H 0.38880745 -2.4209485 -0.9187087
