11

O -0.9030579 -0.75039166 0.16021755
C -0.32980862 0.31300366 0.78360635
C 0.9001492 0.6847287 -0.016292986
O 1.0995854 -0.43375102 -0.8588291
C -0.16227221 -1.001343 -1.0344043
N -0.735081 0.89506507 1.8212217
H -0.05735344 -2.0780566 -1.1708155
H -0.6994648 -0.5437441 -1.8772248
H 0.710082 1.6009544 -0.59302735
H -1.5986995 0.4852813 2.166625
H 1.7759207 0.82825327 0.6189231
