11

O 1.3483028 0.29505506 -0.6462589
C 0.35834906 1.2807521 -0.36729732
C 0.23633154 -1.1563418 -0.5009581
O -0.52112114 0.7744099 0.6129856
C -0.5946561 -0.6056993 0.5480577
N -1.337729 -1.3029431 1.2957002
H -1.9632714 -0.7138123 1.8402958
H 0.9377406 -0.2988862 -1.4174529
H 0.8574786 2.1586802 0.046055216
H 0.8717445 -1.9618789 -0.12922306
H -0.19316953 1.5306644 -1.2819045
