11

O 1.10051906 -0.28299577 -0.91846970
C 1.03385714 0.22479321 0.39999354
C -0.39718089 -0.04411476 0.81307144
O -1.08679242 -0.34932834 -0.31799820
C -0.19646414 -0.18960922 -1.42283608
N -0.84756233 0.01711442 1.98486253
H -0.38458983 0.79234239 -1.87967172
H 1.75043667 -0.30051565 1.03374340
H -1.84504679 -0.17607102 2.01256138
H 1.23717422 1.30454473 0.43187475
H -0.36435086 -0.99615999 -2.13713157
