13

N 0.80186015 -1.3689355 -0.7342245
C -0.640775 1.3940324 1.3023831
C -0.121210225 0.7031501 0.11052088
N -1.0208108 1.9512963 2.241429
C 0.37680754 -0.70019156 0.48892984
N -1.178989 0.5829634 -0.8687257
H -0.8725089 -0.07136384 -1.5785278
H -1.396754 1.4804301 -1.2866665
H -0.46584803 -1.2544816 0.91316605
H 0.74610096 1.2958646 -0.23309709
H 1.1612312 -0.61830384 1.2541537
H 1.7178724 -1.0267259 -1.0174141
H 0.8930239 -2.3677347 -0.5919267
