11

O 0.7080129 1.9198565 -0.22366352
C -0.6688527 -0.11754347 -0.95563686
C 0.41884342 0.6656909 -0.091981865
C -0.9574853 -0.89663714 0.29326007
C -0.19206344 -0.13348944 1.1007396
N 1.662559 0.017411673 -0.15929174
H 2.2462144 0.56533706 0.48725322
H -1.5109272 -1.814737 0.45303565
H 0.04589601 -0.13689251 2.1619518
H -1.4507375 0.59165645 -1.2342144
H -0.30145964 -0.66065323 -1.8314519
