12

N -0.928241 2.080741 1.7923691
C -0.85789096 1.2760061 0.9673788
C -0.7598979 0.22318642 -0.064948425
C 0.39407384 0.4746825 -1.0855558
N 1.4866205 -0.41171154 -0.6822577
C 1.0070412 -1.1971672 0.19576627
N -0.34462696 -1.0575023 0.50747067
H -1.7319694 0.13760178 -0.5588881
H 0.06931635 0.21424451 -2.0973563
H 0.7272234 1.5160542 -1.0935254
H 1.5792593 -1.9894845 0.6693292
H -0.6409086 -1.2666508 1.4502178
