12

N 1.2185414 -0.33848852 -0.77253395
C 0.44801697 0.6508821 -0.31729794
C -0.11598011 -1.87934 0.2946653
C -0.97385085 -0.8908672 0.79247135
N 0.9392581 -1.6003757 -0.45764092
C -0.68566823 0.41667143 0.48408642
N 0.8620513 1.9281855 -0.63894993
H 0.14128643 2.6244495 -0.7588076
H -1.8316458 -1.1578099 1.3997003
H -1.2937353 1.2413087 0.841591
H 1.564093 1.940161 -1.3664469
H -0.2723669 -2.9347775 0.49916297
