12

N 0.7569012 -1.0960178 0.2132152
C 0.47161606 1.0534875 -0.8120835
C -1.248051 0.17765658 0.65412396
C 0.842792 0.004725575 1.0066035
N -0.43213892 0.2250796 1.646107
C -0.5896719 0.01088412 -0.6779503
N 1.2918738 1.101343 0.1868373
H 0.32143405 -1.9247189 0.617757
H 1.5464463 -1.2819349 -0.40361938
H -1.1735803 -0.30211562 -1.5439714
H 0.53487283 1.7320746 -1.6611049
H -2.322494 0.2995359 0.7740856
