11

O 0.46217284 -1.0936723 -2.338028
C 0.8079489 -0.14753062 -1.663233
C 0.26752093 0.10698073 -0.3359629
C 0.47445363 1.0711191 0.62192446
N -0.3090538 0.8368937 1.7144433
C -0.98530483 -0.25488302 1.4274778
N -0.6769597 -0.73774385 0.20582032
H 1.5598378 0.5834568 -2.019131
H 1.1453778 1.9188569 0.58216655
H -1.7099416 -0.73190457 2.0752275
H -1.0360521 -1.5515729 -0.27070537
