11

O -0.13946365 1.753825 -2.6342297
C 0.414558 0.7925677 0.790593
C -0.1361227 -1.3452448 0.8518333
C -0.004458946 0.3333342 -0.6009928
N -0.21946162 -1.0814976 -0.5150926
C -0.05873258 1.0512319 -1.6963239
N 0.24226348 -0.40217662 1.6205897
H -0.35776302 -2.3513424 1.1999998
H -1.004187 -1.4718064 -1.0197254
H 1.4624723 1.1109856 0.81985086
H -0.1991043 1.6101233 1.1834978
