11

N -0.80495035 -0.26045898 2.31101147
C 0.09257664 -0.56110845 1.38066041
O -0.30275436 0.07761012 0.25796618
N 0.82096799 0.98783715 -1.67875976
C 0.55698226 -0.11622939 -0.82391365
N -0.08837846 -0.12153745 -2.08170715
H -0.70253951 -0.66541049 3.22511177
H -1.59632415 0.35896077 2.16654099
H 0.19563218 1.75116291 -1.42329464
H 1.38321961 -0.78175429 -0.58203131
H 0.44556811 -0.66907187 -2.75158432
