11

N -0.6970517 0.4041919 1.9852598
C 0.021138484 -0.26306778 1.0159934
O 0.7367211 -1.2141606 1.2448083
N -0.12146863 0.2854591 -0.2526377
C 0.5253064 -0.23148455 -1.3625642
N 0.40333048 0.35075566 -2.4859138
H -0.72586817 -0.08651884 2.8664756
H -1.5494857 0.87759876 1.724047
H -0.6240573 1.1510391 -0.395892
H 1.0987881 -1.1325995 -1.1425451
H 0.9326469 -0.14121322 -3.1970313
