10

C 0.38417888 2.0542698 1.501335
C 0.18230031 1.0920997 0.8059355
C -0.057588916 -0.043297816 -0.02020237
C -1.2047653 -0.72102076 -0.37251055
N -0.8696214 -1.743109 -1.1984781
N 0.4144092 -1.7400178 -1.3808743
N 0.9153082 -0.7253891 -0.6797329
H 0.5541754 2.9100804 2.120037
H -2.2267842 -0.5315168 -0.08251268
H 1.9083879 -0.5520982 -0.69299626
