11

N 1.3697605 -0.66419554 2.5910757
C 0.6614438 -0.67374974 1.6799815
C -0.24210007 -0.6536668 0.51447374
C -0.5329599 0.74167734 -0.07461197
C 0.24104127 0.22083546 -1.2910002
O 0.405253 -1.0767603 -0.6841165
H -1.1179198 -1.2679826 0.7484909
H -1.5946113 0.9317626 -0.24219285
H -0.08223522 1.5788472 0.4585712
H -0.31732002 0.16198888 -2.2286954
H 1.2096475 0.7012435 -1.4719758
