12

C 1.4001852 -0.29438978 0.88271177
C 0.33575812 -0.50592065 -0.18690914
C -0.5885445 0.6956446 -0.31880313
O -0.2187357 1.8353577 -0.11228659
N -1.8657465 0.3997921 -0.7006157
H 2.1110134 -1.1251822 0.8919768
H 1.9418005 0.6361619 0.6945729
H 0.948118 -0.2199354 1.877277
H -0.24835046 -1.4131489 0.015090421
H 0.80941206 -0.6480299 -1.166402
H -2.1421952 -0.5296986 -0.9657133
H -2.4827154 1.1693492 -0.91089904
