12

C -0.49730268 0.56900232 -0.07286767
N 0.04826746 -1.75954524 -0.19266043
C 0.85038167 1.17474388 0.06088477
N 0.20093388 0.56592885 1.21242153
C -0.67456572 -0.76056821 -0.76071600
O -1.36912175 -0.87564909 -1.75201438
H -1.33765966 1.24288244 -0.22179930
H 0.92578279 2.25937557 0.01452193
H -0.18927386 1.26800557 1.83312939
H 0.40772985 -1.61855189 0.74050017
H 1.71276892 0.63134378 -0.31586660
H -0.07794098 -2.69696787 -0.54553363
