12

C 0.7423475 -0.39656103 0.90525055
N -0.2917824 -1.2263454 1.196492
C -0.57253855 1.0653527 -0.76333666
N -0.086221114 -0.44858772 -1.4753467
C 0.6666663 0.18283293 -0.51248795
O 1.6428083 -0.09852619 1.6587255
H 1.6182393 0.65779585 -0.7806474
H -0.81935203 -1.6063746 0.42375004
H -1.1559018 0.5104053 -1.6011426
H -1.2287571 1.0995241 0.10812797
H -0.22439656 -1.7555268 2.0522342
H -0.291112 2.0160105 -1.2116188
