11

C -0.8993345 -1.294061 -2.0959775
N 0.5391489 0.69434595 0.27931014
C 0.6641679 -0.5316618 1.0655484
C -0.6690408 0.75921386 -0.48871726
N -0.85140884 -0.35047653 -1.4028406
H 1.5940343 -0.48682764 1.6382979
H 1.3360991 0.7949157 -0.33957356
H -0.68320686 1.6793388 -1.0781664
H -1.5282507 0.76849115 0.19076177
H -0.16700856 -0.5886367 1.7764158
H 0.66479987 -1.4446415 0.45494133
