11

C -1.2553272 -0.58958805 0.12300883
N 0.18191384 -0.7646847 0.27864787
C 1.0076118 0.05557183 -0.41746718
C 1.1921225 1.744 0.60916203
N 0.46756986 2.0629356 -0.28327638
H 0.6926108 0.23251605 -1.4434565
H -1.527386 -0.73989904 -0.9264787
H 2.068764 -0.120301805 -0.30002102
H -1.781301 -1.321815 0.73680454
H -1.5408047 0.43027198 0.4120789
H 0.49422556 -0.9890068 1.2109975
