11

O 1.6736319 0.28807175 1.8979809
C 0.8736498 0.2976713 1.0009476
C -0.12189218 0.63284487 -1.0278105
C 0.93432933 0.9969008 -0.3088935
N -0.36069134 -0.43132022 1.0362198
C -0.28662688 -1.6482092 0.12766755
N -0.92426044 -0.2818413 -0.26581636
H -0.43234074 0.873828 -2.034055
H -1.9283161 -0.133171 -0.23720372
H -1.1758341 -2.2360144 0.42096207
H 1.7483506 1.6412393 -0.6099989
