13

C 0.19522084 0.30141246 -0.10612078
C 0.026214067 1.7878611 -0.18998605
N 1.3888167 -0.14833857 -0.11907219
O 1.4045504 -1.557867 -0.09584201
C -1.028687 -0.591128 -0.017317204
O -1.0122242 -1.457055 1.0894415
H 0.99781835 2.2802362 -0.25801715
H -0.50644416 2.1574764 0.6925652
H -0.5721873 2.0555005 -1.0687613
H -1.9174386 0.041989688 0.08971728
H 2.3446205 -1.7644517 -0.0696206
H -1.1272554 -1.1375288 -0.968103
H -0.19300443 -1.9681071 1.0211164
