11

C 2.0954878 -1.0679452 0.40869296
C 1.0132095 -0.49657425 -0.21083577
C -0.15584277 -0.30614752 -0.71813446
C -1.0517172 0.8201327 -0.45998368
O -0.74211025 1.9701515 -0.7183497
N -2.2720122 0.46682706 0.06992399
H -2.585446 -0.48348635 -0.033451222
H -2.9708385 1.1958402 0.06151756
H 3.0975108 -0.7349191 0.15615098
H 1.9848874 -1.791716 1.214576
H 1.5868711 0.42783687 0.22989334
