11

C 0.59453315 0.73343307 2.2438962
C 0.30345726 0.16672814 0.92671555
C 0.074050345 -0.31531832 -0.15223081
C -0.14531934 -0.9706125 -1.4415252
O 0.3271869 -2.0548582 -1.7135799
N -0.93744963 -0.26362696 -2.298793
H 0.46027255 -0.020148262 3.0228567
H -0.062336195 1.5786791 2.4642975
H 1.631245 1.0834931 2.2847996
H -1.037821 -0.62292534 -3.235441
H -1.207819 0.68515635 -2.1009948
