9

O 0.83748424 -1.722783 -0.621811
C 0.27298358 -0.57316166 -0.21547103
N -0.65996933 0.06936447 -0.8971996
N -0.9079303 1.1243178 -0.12494334
N -0.21625008 1.213377 0.99017507
C 0.5595401 0.13345143 0.9685374
H 0.44683158 -1.9677386 -1.4703866
H -1.5919795 1.814498 -0.38590497
H 1.2592896 -0.09132553 1.757004
