11

O 0.97957254 0.97552538 0.93425081
C -1.40536105 0.54399954 0.63527045
N -1.12136693 0.29779167 -0.62849997
C 0.20281388 -0.24408372 -1.00782120
C 0.87514131 -0.30314728 0.34126182
C -0.12550460 0.14345589 1.32797444
H -1.77966260 0.53996803 -1.35934595
H 0.10769879 -1.23307268 -1.46811724
H 0.70992604 0.43158837 -1.70357519
H 1.67368968 -1.00849508 0.55332354
H -0.11694717 -0.14352971 2.37527837
