11

O -0.36551243 0.29185578 1.6646365
N 0.3506734 -0.2701804 -1.5605171
C 0.81040275 -0.20034526 0.9949801
C -1.1035068 0.4326042 0.42572877
O -0.42848122 -0.07057776 -2.5349874
C 0.08692512 -0.06959774 -0.3123075
H -1.388077 1.4736348 0.23437907
H 1.0654466 -1.2182033 1.3153368
H 1.6739631 0.45991483 1.1441013
H 1.2938784 -0.6255338 -1.7744266
H -1.9957118 -0.20357144 0.4030763
