11

O 1.3084502 -0.24835305 0.56869864
C 0.1456929 0.56173223 0.41781446
C 0.11936562 -0.61901295 1.2736586
C -0.4368057 0.52778673 -0.97852784
O -0.32612476 -0.7565506 -1.5428752
H 0.22143248 1.5463004 0.8803639
H -1.5000687 0.785075 -0.94406235
H 0.57422084 -1.0533495 -1.3444897
H -0.36007103 -1.5245534 0.9085768
H 0.07424484 1.2849714 -1.5943757
H 0.17966309 -0.50404626 2.3552184
