12

C 0.22984036 -0.33849373 -0.11489954
C -0.25148439 -1.47680422 -0.97507000
C -0.39865463 1.71808063 0.81777340
O -0.72056946 0.60426765 -0.01217827
N 1.34169245 -0.21258614 0.48672743
H 1.94119126 -1.01006041 0.29073552
H 0.47901648 2.24571692 0.43484658
H -0.19533885 1.39428067 1.84310603
H -0.96649621 -2.08698362 -0.41384444
H 0.58327033 -2.10897571 -1.28526977
H -0.76494402 -1.09188382 -1.85918236
H -1.27752338 2.36344171 0.78725563
