12

C 1.4008702 -0.29091105 0.8825072
C 0.33730417 -0.5059402 -0.18787408
C -0.5899421 0.6934785 -0.3205805
O -0.22123472 1.8332992 -0.11349031
N -1.8675075 0.39774227 -0.70201176
H 2.11526 -1.1197333 0.8903251
H 1.9405909 0.6409872 0.6965237
H 0.9499548 -0.2208157 1.8773128
H -0.24554807 -1.4146311 0.0131342895
H 0.81332177 -0.64896095 -1.1671436
H -2.1435149 -0.53225994 -0.96408194
H -2.4895546 1.167745 -0.9046207
