10

C -1.1612748 0.063293636 -0.5705851
C 0.34960234 0.18855289 -0.5109869
O 1.0014513 0.53596854 -1.465865
C 0.9899536 -0.15350246 0.81979066
H -1.5041307 0.16989288 -1.6020317
H -1.4884609 -0.89818645 -0.16156684
H -1.6155121 0.84916645 0.043587696
H 0.91634536 -1.2333055 0.9897014
H 2.0439527 0.13602178 0.812767
H 0.46807346 0.34209824 1.6451887
