10

C -1.0784727 -0.15924275 0.26318577
C 1.1198858 -0.3462643 -0.60621774
O 0.26848033 1.8550825 -0.08992943
C 0.38575524 0.61967754 0.14571449
H 1.6278561 -0.0868255 -1.534074
H -1.5466096 -0.12119125 -0.7211977
H -1.6128963 0.49289587 0.95314646
H 0.689999 0.30006838 1.2070539
H 1.1691626 -1.3772728 -0.26352447
H -1.0231606 -1.1769276 0.6458426
