10

C -0.98368313 0.42585313 0.72677430
C 0.77132275 -0.63739764 -0.82266033
O 1.25150494 1.24908209 0.56142097
C 0.43531960 0.43702342 0.19436212
H 0.22455384 -0.44221754 -1.75258366
H -1.12709468 -0.45855044 1.35767237
H -1.70820905 0.36130024 -0.09218919
H 0.45900714 -1.62340118 -0.46413826
H 1.84429943 -0.63517867 -1.02968797
H -1.16702063 1.32348649 1.32102969
