10

C -0.37090364 -0.48602134 0.360705
C 0.091468014 0.022258153 -1.1309458
O -1.5510086 -0.9412448 0.3778333
C 0.15768375 0.51798713 1.2169377
H -0.16908108 -0.82164466 -1.7671587
H 1.2118855 0.77996033 1.159449
H -0.4766424 1.0385084 1.9303443
H 0.48725143 -1.250827 0.4343607
H 1.150822 0.2588861 -1.2040423
H -0.531475 0.88213754 -1.3774829
