11

O -1.54760374 1.15398870 1.09595630
C 0.20116655 -0.36549569 0.51777952
C -0.74616671 0.70834477 0.04728258
N 1.11502640 -0.94274035 -0.41557692
C 1.31265462 -0.71807158 -1.70287149
O 0.21216308 -0.75028507 1.66214531
H 0.58620885 0.06600047 -1.99889778
H 1.68712636 -1.64460920 0.04921230
H -1.29478603 0.65125428 1.88524516
H -0.16032377 1.54141924 -0.37254283
H -1.36546556 0.30019428 -0.76773201
