11

O 0.013129445 0.0038420635 -2.0139558
C -0.8076954 0.90253925 1.1689867
C 0.57788664 -0.63238245 0.23468962
N -0.57953113 1.3270284 -0.18766552
C 0.067528345 0.30216303 -0.8439429
O 0.6576945 -1.9332188 -0.16475192
H -1.3962383 1.6574286 -0.690131
H 0.11774768 1.1812917 1.7183362
H -0.33946022 -0.48597994 1.0481018
H 0.19348991 -2.0000231 -1.0125202
H 1.4954486 -0.3226883 0.7428529
