10

N -0.0031151806 -0.41841713 -0.31247944
C -0.050583202 0.6965925 0.5432275
O -0.7774203 0.76227415 1.5129813
N 0.79913545 1.6779745 0.14245328
C -0.73097515 -1.5002551 -0.1741305
O -0.43563312 -2.294795 -1.1209141
H 0.3164761 -1.2317634 -1.3242027
H 0.8933327 2.484802 0.73451084
H -1.4626048 -1.7033297 0.60575145
H 1.4513874 1.5269171 -0.6071975
