10

N 0.600721 -0.8097214 1.5061134
C 0.015258085 0.1688462 0.7426205
O -0.39768738 1.2185329 1.1852372
N -0.10075167 -0.17665786 -0.6071718
C -0.63873595 0.6741858 -1.560314
O -0.7671407 0.348222 -2.7152488
H 0.8271809 -0.5162616 2.4452322
H 1.2497121 -1.4539094 1.0831754
H 0.13284023 -1.1039442 -0.93429244
H -0.92139673 1.6507076 -1.1453515
