10

O 0.39655954 -1.6983682 -0.2710611
C -1.8030994 -0.19384883 0.8248127
C 1.6133296 0.23511766 -0.9771999
N -1.0272281 -0.1399614 1.7919346
O 2.4307725 -0.36377224 -1.6190913
C 0.47352973 -0.4932303 -0.25892088
C -0.5184033 0.3787994 0.44984326
H 1.6271694 1.3400879 -0.8732315
H -2.7991216 -0.522406 0.5661648
H -0.39350834 1.4575822 0.3667491
