11

O -1.34931002 0.76918183 -1.25123668
C 0.52599141 -1.75552472 0.19840183
C -0.44943550 0.41084403 -0.46705542
N 0.19117461 -0.87248883 -0.69159727
C 0.08081513 1.12197969 0.58597991
O -0.42668760 2.34170563 0.82909337
H 0.24188642 -1.58666495 1.23287917
H 1.07723283 -2.63648490 -0.10115781
H 0.29644001 -1.08460068 -1.67997704
H -1.14315314 2.43855261 0.17423817
H 0.95504595 0.85350005 1.17043169
