11

C 0.91353714 -1.86509527 -0.58811658
C 0.71564602 -0.56756710 0.04074755
C -0.64280269 0.06969818 -0.00171603
C -0.69311184 1.55242295 0.28803185
N 0.78620994 -1.96789687 0.64587554
O -1.62539914 -0.59052693 -0.26091989
H 1.56723293 0.08222923 0.24431684
H 1.07133042 -2.47143017 -1.47052149
H -0.02114797 2.10072686 -0.37867940
H -1.71430821 1.91667577 0.16706065
H -0.35718709 1.74076338 1.31392083
