11

C 1.0088938 -0.80944604 -1.1433258
C 0.21733716 -0.16412868 -0.058377188
C -0.88220423 0.6329281 -0.051643234
C -1.0916373 0.88400185 1.3312572
N -0.19975428 0.29081044 2.076991
O 0.6289316 -0.37322575 1.202229
H 1.0064229 -1.8988094 -1.0334088
H 0.58163756 -0.5558516 -2.1145062
H 2.0487616 -0.47166452 -1.1194748
H -1.4548907 0.98709124 -0.8960027
H -1.8634986 1.4782944 1.8062614
