11

C -0.22917353 -0.3219393 -0.4679207
C 0.074023776 0.6070966 -1.6339667
C 0.20384452 -0.67072684 1.9788673
C -0.0056877565 0.21703012 0.84253263
N -0.3853432 -1.7506429 1.7881207
O -0.56944627 -1.4812117 -0.6720429
H -0.14864843 1.2740194 1.0546066
H 0.28131327 1.6371994 -1.3298553
H -0.77367026 0.59137166 -2.3228018
H 0.6092263 -0.31421942 2.9308722
H 0.9435616 0.2120232 -2.168412
