11

C 0.7834822 -0.873591 0.63781106
C -0.52493554 1.3207083 -0.14816964
O -1.2799488 -0.08087335 -0.13175592
C -0.3163935 -0.99862 -0.23853002
O 0.75627744 1.1503725 -0.33716366
H -0.8198787 1.7414466 0.8271852
H 1.6579307 -1.4972278 0.46985322
H -1.0562296 1.8286065 -0.9623386
H -0.55497473 -1.9435769 -0.72746086
H 0.80002147 -0.21343565 1.4931171
H 0.5546492 -0.43380943 -0.8825477
