11

C 0.19356450 1.15185762 0.45051860
C -0.18840990 -0.56125878 -1.14129678
O -0.92529428 -1.47033160 -0.38963844
C 0.72471289 0.38179072 1.39578704
O -0.36612823 0.77479046 -0.73682349
H -1.86305739 -1.26613307 -0.50830560
H -0.48256807 -0.56877822 -2.19761735
H 0.73600241 -0.70014642 1.35316038
H 0.86408190 -0.84078554 -1.03433232
H 1.14802546 0.86371142 2.26987385
H 0.15907048 2.23528352 0.53867389
