11

C -0.83970845 -0.13978513 -0.71074593
C 0.40472034 -0.92679703 -0.29324418
O 0.65709597 -0.43028578 1.0091567
C 0.35157955 0.93350804 0.9218839
O -0.74236435 1.065763 0.033212915
H -1.7620223 -0.6631219 -0.43397698
H -0.8622625 0.08101162 -1.7837961
H 0.25046375 -2.0054836 -0.23238373
H 1.255334 -0.7124466 -0.9573861
H 0.073516145 1.2980398 1.9141389
H 1.2136476 1.4995977 0.5331404
