9

N -0.8870576 -0.57569516 -1.2248267
C 0.2329966 -0.14655899 -0.55251986
C -0.05371595 0.37025058 0.78594625
N 0.95993555 0.80503684 1.4843956
N 1.8377204 1.1746513 2.0870695
O 1.3457876 -0.16117236 -1.042269
H -0.70092696 -1.0926089 -2.072167
H -1.7051126 -0.8453329 -0.7032208
H -1.0296271 0.4714297 1.2375922
