9

N 1.79529913 1.95001382 1.10283610
C 1.06683698 0.31777017 -0.53551770
C -0.10918540 -0.36043047 -0.34513609
N -0.98152205 -0.31042431 0.69450987
N 1.38871451 1.17424915 0.38707215
O -0.51584783 -1.24495058 -1.26544799
H 0.16413913 -1.24583815 -1.95309017
H -0.92176063 0.45263696 1.34713005
H -1.88667388 -0.73302648 0.56764397
