9

N -0.80786806 1.0455452 -2.5487418
C 0.7129659 -0.045942713 -1.0077039
C 0.35480535 -0.20333055 0.3061378
N -0.7623988 0.21206799 0.9570099
N -0.15505086 0.54943746 -1.7695456
O 1.1912179 -0.82669234 1.146708
H -1.5632178 0.49901187 0.4202612
H 1.9680684 -1.0645448 0.6221469
H -0.9385222 -0.16555214 1.8737274
