10

N 0.9733476 1.4224215 0.5558341
C 0.25843585 0.31893373 0.10029462
N 0.24360031 -0.02322859 -1.1829275
N -0.47184116 -1.141968 -1.1871556
N -0.9340628 -1.551979 -0.029069819
C -0.48190212 -0.6378382 0.82559144
H 0.50044215 1.9467975 1.2777418
H 1.2524428 2.0241663 -0.20630272
H -0.6476269 -1.6521506 -2.037042
H -0.6928356 -0.7051541 1.8830357
