11

O 0.98553188 0.49661751 2.32429398
N -0.02826427 0.28254962 1.59954363
C -1.04691659 -0.21449350 -0.74531129
C 1.04280275 -0.04707443 -0.70597658
O 0.02478728 -0.29509788 -1.70527479
C -0.03018794 0.04810031 0.32654458
H -1.60314621 -1.15772080 -0.67482607
H -1.74239960 0.60364157 -0.97225253
H 1.74022469 -0.88751514 -0.60587677
H -0.94705508 0.29802944 2.06696499
H 1.60462291 0.87296323 -0.90782896
