11

O -1.1816562 -2.140986 0.62092
N -0.89914185 -0.81820893 0.94972575
C 0.5727336 -0.2601546 -1.0563272
C -0.18059187 -0.07421752 0.23228216
O 1.0186558 1.109767 -0.96509975
C 0.31917912 1.3413719 0.27332467
H -0.046671607 -0.44802368 -1.9411627
H 0.996898 1.5798525 1.10003
H -0.4457153 2.1192803 0.18232927
H 1.3996779 -0.97922266 -1.0175859
H -1.5533675 -1.4294584 1.6215637
