10

N -0.26550445 0.39722708 -1.5679312
C -0.038899038 0.16729787 -0.16057661
C 0.1386202 -1.1495329 -0.008664278
O 0.33981693 -1.2583514 1.3690706
C 0.2586126 -0.0011588486 1.8550223
N 0.029884579 0.9315178 0.9847973
H 0.45407566 0.9294571 -2.0532644
H 0.3904692 0.121813595 2.9215696
H -1.1917653 0.7334757 -1.8219193
H -0.115310274 -0.87174565 -1.5181046
