10

N 0.40297255 -1.246232 -0.91175413
C -0.88752717 1.3053141 1.024819
C 1.179616 0.73518497 0.3301117
O 0.40395 1.6601815 1.0804137
C 0.15842475 -0.06448299 -0.0698759
N -1.1339142 0.24634126 0.33229548
H -0.061438687 -1.1894975 -1.821248
H 1.4185141 -1.2464372 -1.0508937
H 0.12208376 -2.1229627 -0.46560788
H -1.6026809 1.9225906 1.5517396
