10

N -0.65669906 -1.2193465 1.1893818
C -0.18012588 -0.30585963 0.25659212
C -0.7817108 0.73057693 -0.37732065
O 0.14122254 1.2679851 -1.2487751
C 1.231993 0.5175748 -1.080958
N 1.1195815 -0.4259297 -0.20813723
H -1.3163373 -0.8355847 1.850511
H 0.10189557 -1.6894788 1.6645001
H -1.7562293 1.1920916 -0.36382547
H 2.0964098 0.7679708 -1.6819685
