11

C -0.0673763 -1.4496382 0.041355178
C -0.85205364 0.8357197 -0.36429378
O 1.1130582 -0.89084005 0.17479505
C 1.0905697 0.48179123 0.25753883
O -0.049136173 0.9799109 0.83306956
H 2.0390894 0.86402917 0.6346352
H -0.993217 1.8303438 -0.8028789
H -0.034145154 -2.4223185 -0.4389165
H 0.41433576 0.6132319 -0.9181351
H -1.8181974 0.3699326 -0.17373638
H -0.84292704 -1.2121626 0.756567
