11

C -1.26626440 -0.34518517 -0.79850916
C 0.93573748 -0.80112808 -0.17449688
O 1.42480084 0.23031195 0.41549347
C 0.82639497 1.14642049 1.13252593
O -0.35711224 -1.11383245 -0.00166539
H -2.27450981 -0.63944432 -0.49568767
H -1.11284295 -0.56770999 -1.86160722
H -1.11755396 0.72856767 -0.63066078
H 1.64890949 -1.50853298 -0.57666112
H -0.20887645 1.00830744 1.41450776
H 1.50131701 1.86222551 1.57676117
