10

O -1.65308185 -1.06955068 0.51734142
C 1.10671720 0.06288351 -0.74491680
N -0.03043227 0.46100972 1.18342779
C -0.89718048 0.01819867 0.10305553
C 1.13871317 0.52628712 0.66506670
N -0.08107834 -0.28272196 -1.07162698
H 2.00988783 0.86912225 1.21564041
H -1.51839481 0.88775737 -0.17138756
H -2.02866314 -1.47208939 -0.27507286
H 1.95351208 -0.00089669 -1.42152786
