10

O 2.363337 -0.39868492 0.27522618
C 1.1715671 -0.19722117 0.13597827
N 0.32984763 0.5726553 0.9249096
C -0.97383106 0.55197805 0.43406272
C -0.9768024 -0.22354318 -0.66335803
N 0.32677177 -0.68146205 -0.8480118
H 0.6599317 1.059469 1.7394339
H -1.7764075 1.0915135 0.91242266
H -1.7811493 -0.4916424 -1.327724
H 0.65673447 -1.2830622 -1.5829397
