10

O -1.766021 0.6745989 -0.7552128
C 0.49593115 -1.2184783 0.5341559
N 0.5857294 0.80411243 -0.49519098
C -0.7080233 0.5447361 0.13360374
C 1.2998716 -0.21959086 -0.21399099
N -0.6998536 -0.7928756 0.70392513
H -0.7794702 1.243444 0.9845216
H 0.834489 -2.18582 0.89365727
H -1.6025527 1.4700853 -1.2762681
H 2.3398998 -0.32021147 -0.5092008
