10

C -0.20855114 0.3294077 -0.34534633
O -0.79361826 0.6965119 -1.5111367
C 0.67695713 -0.6652365 -0.22074158
O 1.2497065 -0.9017727 1.0283375
N -0.5897488 1.1543869 0.6999555
H -0.2633579 0.79583657 1.5837758
H -1.5654498 1.4091203 0.6852574
H 0.88951206 -1.7310797 1.3679671
H 1.0783824 -1.2015177 -1.0765206
H -0.4738324 0.11434322 -2.2115479
