9

O 0.7565085 0.24912688 -2.0798159
C 0.2660296 0.111890964 -0.83545846
N 0.9885441 -0.31232515 0.17766576
N 0.07722454 -0.28321734 1.181682
C -1.1060569 0.14555636 0.7207957
N -1.0278821 0.4092391 -0.5689103
H 1.6861987 -0.011348008 -2.0512712
H 0.34364036 -0.5611183 2.1118371
H -1.9842067 0.25219536 1.3434752
