9

O 0.30038485 0.37967604 -1.9650474
C 0.030633423 -0.100024834 -0.7268334
N -0.39396012 -1.3353384 -0.4838453
N 0.040033538 -0.12084022 1.603922
C 0.27268142 0.54936594 0.53530216
N -0.61152846 -1.954858 0.48184234
H -0.5251221 0.6329425 -2.403172
H 0.64744884 1.572232 0.4924864
H 0.23942873 0.3768448 2.4653451
