12

O -0.6636095 1.490424 -0.81466883
C 0.18554807 0.41664892 -1.1348027
C 0.4794582 -0.4008281 0.121682115
O 1.0332427 0.45940587 1.08278
C -0.7893407 -1.0174159 0.6689339
O -1.1291367 -0.8276875 1.8112876
H -0.26299968 1.9147005 -0.042012043
H 1.1390792 0.7547555 -1.5638387
H -0.3271083 -0.19777669 -1.8837266
H 1.1703823 -1.2238393 -0.12745285
H 0.5354734 0.29296145 1.9009674
H -1.3709891 -1.6613486 -0.019149521
