10

C -0.7130575 -0.3629219 1.0539424
C 0.1056185 0.1631025 -0.01130962
C -1.3922259 -0.7844645 1.9493698
C 0.22147323 -0.5959882 -1.2286335
N 1.0158186 0.094522536 -2.0394003
N 0.75019985 1.2816621 0.046665184
N 1.5687416 1.1139897 -1.9379038
H -0.216797 -1.5425602 -1.4978067
H -1.9976245 -1.1616124 2.7450073
H 0.65785354 1.7942704 0.9200692
