10

C 0.387471 2.0524983 1.5006112
C 0.1836499 1.091017 0.80568534
C -0.05838043 -0.04302304 -0.019407736
C -1.2061249 -0.7210946 -0.37191153
N -0.8708114 -1.7406056 -1.1998789
N 0.4147893 -1.7378547 -1.3822303
N 0.9145469 -0.7251566 -0.67985815
H 0.55650103 2.9068103 2.1212769
H -2.228308 -0.53286886 -0.08263878
H 1.9066666 -0.5497222 -0.6916476
