11

C 1.4781413 1.0694747 1.3649167
C -0.43085575 -0.19622512 0.56340545
O 0.30900186 1.0307455 0.7948167
C -0.30518654 -0.5370801 -0.908783
O -0.8126056 0.4884631 -1.7264646
H -0.022718016 -0.98335725 1.2125285
H -0.317382 1.2907596 -1.5230595
H -0.90212166 -1.4302616 -1.1191775
H 0.7468522 -0.76493275 -1.1362698
H 1.7232791 0.0031839602 1.6509694
H -1.4664048 0.02923017 0.8271175
