10

O -0.15080749 0.01611880 2.03186507
C -0.82941273 0.34768418 -1.09263554
N -0.82046129 0.97212987 0.02419593
C 0.28654675 0.39046413 0.76961465
C 0.20991587 -0.71053839 -1.10591115
N 0.84284348 -0.72472264 0.00455563
H 0.48096699 -0.62865080 2.37168377
H 1.08038193 1.15785254 0.80443904
H -1.52489908 0.58156818 -1.89288082
H 0.42492561 -1.40190590 -1.91492650
