10

O 0.05720774 -1.4504946 1.6657013
C 0.0367449 -0.47564745 0.73931664
N 0.13669254 0.80239993 0.95150656
C 0.05838436 1.365102 -0.3119812
C -0.088121176 0.40598485 -1.2673855
N -0.10057973 -0.7985091 -0.56841046
H 0.16287826 -0.99774075 2.515013
H 0.114806056 2.4356887 -0.44513974
H -0.18484719 0.4433088 -2.3406293
H -0.19316573 -1.7300924 -0.9379912
