10

C -0.10496891 -0.3367633 -1.312842
C -0.19550171 0.9364211 0.8519783
O 0.6012642 -1.2721632 0.7642579
C 0.09711774 -0.2604414 0.0023462188
H 0.13078994 -1.2381068 -1.8734237
H -0.91511595 0.67279536 1.6346333
H -0.602876 1.751928 0.2516151
H 0.7205794 1.2758871 1.3479251
H -0.5137009 0.5022457 -1.8616301
H 0.7824123 -2.0318027 0.19514008
