11

N 1.15729818 -0.48901699 -0.57287982
C -0.90901267 0.46139816 -0.81194270
N 0.18000216 -0.06251552 -1.46969837
N -1.88116565 1.08268191 -1.31365928
C 0.55971300 -0.40966436 0.55235163
N 0.99796738 -0.87714971 1.75187688
O -0.68890155 0.13314484 0.52009333
H 1.97715140 -1.11914528 1.75071657
H 0.47916499 0.29922796 -2.35917895
H -2.56365861 1.33997432 -0.60750895
H 0.69144139 -0.35893537 2.55982984
