11

N -0.272896 -2.021045 0.8217712
C 0.07265062 -0.85982597 0.2040025
N 0.8075003 0.6083027 -1.0836205
N 1.0597628 -0.66689235 -0.5820871
C -0.22381668 1.217725 -0.406811
N -0.5909971 2.4181857 -0.4896789
O -0.7651207 0.20095286 0.37015972
H 1.5833327 1.137446 -1.4436537
H -1.3963765 2.603281 0.10002279
H 0.4562095 -2.7175372 0.7959188
H -0.7302489 -1.9205927 1.7139763
