11

C -0.97429049 -0.40969342 0.02865528
C 0.14062961 -0.68308383 -0.90052601
O 1.41007951 -0.89732012 -0.26626368
C 0.03212538 1.52439395 0.92303362
O -0.93904472 0.66624369 0.77049913
H -1.93292592 -0.90700034 0.04203756
H 0.32600522 0.18552239 -1.55205440
H -0.13116094 -1.53380156 -1.53897628
H 1.27314533 -1.58678465 0.39435449
H -0.20933213 2.34402081 1.58712498
H 1.00476903 1.29750349 0.51211521
