11

C -0.12031154 -0.6817501 0.7991581
C 0.03428711 -0.9365395 -0.6473372
O -0.44332334 0.5179698 1.2060374
C -0.5374533 1.6199596 0.5134928
O 1.094591 -0.20079435 -1.2751299
H -0.8619359 -0.609536 -1.1979579
H 1.8911685 -0.3749837 -0.75971645
H -0.8446513 2.477912 1.0971488
H -0.18084918 -1.4279456 1.5776198
H 0.15425774 -2.0162249 -0.80575436
H -0.18577978 1.6319331 -0.5075612
