11

N 1.9992145 0.47973585 -1.015813
C -0.8152423 -0.374425 1.2143962
C 0.79837173 0.19486183 -0.30890465
O -1.8190935 -0.5561462 0.28008327
C 0.62382156 1.1219715 -1.1700065
O 0.48752603 -0.614552 0.6752422
H -0.86595625 0.6620281 1.5535853
H 2.217773 -0.28927845 -1.6480916
H 0.098937035 1.9169736 -1.667747
H -1.8387967 -1.484464 0.018617947
H -0.8865547 -1.056705 2.0686376
