11

N -0.6302009 -0.7133344 -1.9409746
C -0.32424363 -0.27799514 -0.8004431
C 0.7061646 -0.87513924 0.13307293
O 0.43764025 -0.24539962 1.3719202
C -0.12874714 0.98949534 1.0496466
O -0.84620225 0.8110569 -0.17074288
H -1.3324598 -0.12689899 -2.3831477
H 0.58731115 -1.9544747 0.23892823
H 1.7186278 -0.64817953 -0.22747006
H -0.8273559 1.2820835 1.8338645
H 0.6394658 1.7587856 0.89534575
