15

N -0.78535788 0.17491979 1.81044991
C -0.51633980 -0.50896041 0.58039924
O -1.04026312 -1.77762099 0.75305097
N 0.87433250 -0.60162506 0.10123640
C 0.96752541 0.13582594 -1.16025005
C -0.28575562 1.01244293 -1.11977972
O -1.21436142 0.18595169 -0.43967475
H -0.62767449 -0.42562054 2.60643826
H -0.63295497 -2.34412550 0.09106032
H 0.92505066 -0.55486768 -2.00862374
H 1.89689540 0.70956303 -1.23010857
H 1.52535445 -0.25848777 0.79739070
H -0.69852568 1.26634525 -2.09910399
H -0.10048981 1.93893272 -0.55410863
H -0.28743572 1.04732652 1.87162363
