15

N -0.46967685 -2.2378867 1.2975422
C -0.3174625 -0.9240724 0.899431
O -0.8000868 -0.0012378279 1.5454861
N 0.41579464 -0.7599155 -0.24475305
C 0.9334201 0.5401363 -0.6734945
C -0.13611038 1.5811813 -1.0141833
O -0.61152714 2.2985575 0.090845525
H -1.1853635 -2.3429801 2.0031343
H -0.4726416 -2.9552114 0.5894606
H 0.9732494 -1.5544142 -0.5228231
H 1.5279547 0.34133816 -1.5705004
H 1.5979054 0.9708672 0.08725627
H -0.9447262 1.0835533 -1.573738
H 0.31660923 2.3209019 -1.6851276
H -0.8273386 1.6391824 0.77146393
