11

O 1.4449509 -0.62253237 0.4847989
C -1.3749679 0.09191166 0.011021437
C -0.25094706 -0.51292026 -0.7298504
N -0.32317358 0.9103571 0.6531079
C 0.8487227 0.5316438 -0.29660264
O 1.5860306 1.3015528 -0.8715088
H -0.089547336 -1.5779097 -0.9059826
H 2.2678943 -0.8066451 -0.002858555
H -0.10375904 0.5586521 1.5856489
H -2.0585132 0.6944825 -0.59878767
H -1.9466902 -0.5685925 0.6710137
