11

O 0.32896063 1.8647407 -0.6239411
C 0.047915176 -0.44593033 -0.031352676
C -0.9633441 -0.24848533 1.0376768
N -1.3810008 -0.4859552 -0.32979235
C 0.77345806 0.7475724 -0.55503815
O 2.032744 0.4251283 -0.9249436
H -1.1480324 0.76278436 1.3913281
H 0.6132754 -1.374845 -0.033271905
H -1.6774777 -1.4484289 -0.464612
H 2.444383 1.2444556 -1.241188
H -1.0708809 -1.0410366 1.7751352
