11

O 1.3682758 1.1978585 -0.42541152
C 0.6959417 0.21481816 0.308235
C -0.79376745 0.52657026 0.5881189
N -1.1141175 -0.7110692 -0.12609264
C 0.16661535 -0.970308 -0.52455807
O 0.6668939 -1.7688423 -1.276322
H 1.9745373 0.7451582 -1.0256171
H 1.2494214 -0.100103706 1.2029245
H -1.0972747 0.5314773 1.6362238
H -1.1259964 1.4358649 0.079749264
H -1.9905295 -1.1014242 -0.43724996
