11

O 0.81157266 1.14317110 -1.41749253
C 0.96783320 0.18668126 -0.70257965
C -1.06531899 0.51759853 0.81470068
N -1.43070040 -0.35036672 -0.28708591
C -0.05885540 -0.39225676 0.21166814
O 2.13512508 -0.48810577 -0.60934099
H 2.75322336 -0.05289365 -1.21704102
H 0.26473470 -1.25210534 0.79344835
H -1.41220537 0.28248176 1.81866109
H -1.02530329 1.57296183 0.55691696
H -1.94010564 -1.16716634 0.03814506
