11

O -1.07131212 -1.89678231 -0.89840072
C -1.36654267 0.29389484 0.17499576
N -0.61942131 1.20817451 0.65527265
C 0.74331137 0.67961652 0.54252508
O 1.52661444 1.62852499 -0.10111897
C -0.52831189 -0.82462818 -0.33322599
N 0.71255200 -0.60099361 -0.16079059
H 1.09146526 0.48828687 1.57137463
H 2.31397247 1.16734818 -0.41557972
H -0.35309783 -2.48749782 -1.17081783
H -2.44922919 0.34405600 0.13576554
