11

O 1.9995723 0.7327561 0.6764978
C 0.6721524 0.36428854 0.85101634
N -0.17601578 1.4537569 0.35827366
C -0.98913956 0.89648575 -0.44983655
O -1.3578868 -1.3510244 -1.3724042
C -0.6626712 -0.5492085 -0.5739352
N 0.3311189 -0.87293446 0.15206228
H 2.5194826 -0.07848211 0.7320687
H 0.41987398 0.22769545 1.915933
H -1.7856616 1.4142948 -0.97299206
H -0.9708253 -2.2376282 -1.3166838
