11

C -0.97993121 -0.41614315 0.05425517
N -1.51217826 0.21384583 1.13228789
C 0.28211645 0.10506691 -0.03940881
C 1.37509573 -0.18406643 -1.01550490
N 0.43992130 1.00996010 0.97532924
N -0.64417499 1.06822356 1.67458873
H 2.24145091 -0.62196604 -0.51080689
H -2.42476223 0.11770510 1.54687440
H -1.52123037 -1.14711967 -0.52661537
H 1.03667423 -0.88182545 -1.78638107
H 1.70701858 0.73631891 -1.50461834
