11

C -1.3068657 -0.78853184 0.68090254
N -0.1283725 -0.052836955 0.26527
C 0.39695355 0.10135793 -0.9734123
C 1.4870884 0.90507275 -0.7679143
N 1.5688846 1.1926509 0.5571942
N 0.59258103 0.61296636 1.1735569
H -1.3635387 -0.7098108 1.7665249
H -2.202714 -0.35247418 0.23289101
H -1.2193749 -1.8379155 0.3928326
H -0.031211328 -0.3578609 -1.8508453
H 2.2065697 1.2873819 -1.4770002
