10

C 0.82199734 -0.09469192 0.78336775
C 0.447924 1.1364613 0.26053533
N -0.51317036 1.2605886 -0.6579086
C -1.0937952 0.12619503 -1.0439938
N -0.82318544 -1.106549 -0.61712056
C 0.13913111 -1.2043947 0.29871228
H 1.6031326 -0.18397072 1.5292264
H 0.92774767 2.0571618 0.58430773
H -1.8779485 0.21513313 -1.7928108
H 0.3681667 -2.2059333 0.6556843
