12

O -0.5411843 0.6153248 -1.6988077
C 0.1885046 1.1726252 -0.63238865
C 0.3626766 0.16235687 0.48799336
C -0.7135297 -0.78679436 0.834797
N 0.42300755 -1.2203962 0.015619423
H -0.2348077 -0.30295584 -1.7629093
H -0.36334643 2.048662 -0.27347404
H 1.1833688 1.5148393 -0.96076506
H 1.0454425 0.45668116 1.283651
H -1.6575646 -0.7348056 0.3019908
H -0.7756459 -1.1457177 1.860292
H 1.0830789 -1.7798197 0.5440013
