11

C -0.20787305 0.60481992 0.23971849
C -0.30640579 -1.41758614 -0.93450550
O -1.42304021 -0.87604043 -1.51638085
C 0.69352164 1.39371886 1.14376740
O 0.41406985 -0.50072666 -0.06790693
H 0.85985625 2.36945945 0.67263868
H -1.69016855 -0.12055811 -0.97229766
H 0.40651870 -1.70014987 -1.71374771
H 0.14009556 1.60340093 2.06665336
H 1.65647755 0.92260109 1.37918290
H -0.54305205 -2.27893917 -0.29712239
