10

N -0.8238565 0.87257886 1.3540828
C -0.17272568 0.17757516 0.3492047
C 0.35066313 -1.0660942 0.21185593
N 0.9877601 -1.1463652 -1.0242541
C 0.8126514 0.008141326 -1.5520382
O 0.11291983 0.8819064 -0.77374434
H -1.5034062 1.536336 1.0051647
H -1.2326201 0.26493025 2.0496192
H 0.33107975 -1.9023732 0.896033
H 1.1375343 0.37336445 -2.5159237
