12

O 0.6859622 -0.87362695 0.4879746
C -0.19329867 1.5769173 0.24372374
C -0.5793654 -0.82105 -0.96289736
O 0.29939672 -0.7729117 -1.9574091
C 0.39741513 -0.2304301 1.5308193
O -0.013139929 0.9915514 1.4994107
H 0.6874027 1.4404901 -0.3885844
H -0.9082305 -1.7846613 -0.5917485
H -1.282506 -0.0025210981 -0.9789015
H 0.42155161 -0.6711716 2.528092
H -0.48110256 2.6119738 0.42042157
H 0.96591467 -1.4645597 -1.8309009
