12

O -1.2631443 -0.66041136 1.2340703
C 0.1261104 -0.48662302 1.1842446
C 0.58534384 0.7037139 0.34390146
O 0.8578684 0.4012025 -1.0458289
C -0.14777151 0.026094433 -1.8265679
O -1.2874551 -0.18999334 -1.4875422
H -1.5807449 -0.6287288 0.31661853
H 0.6564008 -1.3862417 0.8324349
H 0.45026276 -0.29748747 2.2149591
H 1.5521233 1.0721488 0.6951968
H -0.1606991 1.5017593 0.3991172
H 0.21170504 -0.055433434 -2.860604
