12

O -1.8423477 0.3397487 -0.39362082
C -0.71817183 1.160439 -0.3871201
C 0.33314544 -1.5790085 0.97990644
O 0.4185311 0.5026783 -0.9253147
C 1.4516348 0.19630176 -0.09142406
O 1.3690207 -0.8627902 0.6692476
H -1.9876142 0.06434521 -1.3115858
H 0.5520043 -2.367222 1.6862509
H -0.5324558 1.456 0.6520899
H -0.86422414 2.0470757 -1.0139846
H -0.63941175 -1.3479496 0.56948024
H 2.4598892 0.39038157 -0.43392515
