11

C 0.5573067 -0.5573017 0.16389014
C 0.23907538 -1.4847187 -0.90370154
C 0.44561562 1.2997414 0.720336
N 1.1679294 -0.005675812 1.0366448
C -0.9339942 1.277342 0.59474635
O -1.5944462 0.22789441 0.39587435
H -1.4388884 2.2500126 0.7089005
H 1.1191151 2.1431172 0.7259407
H 0.1267846 -2.4795847 -0.46032754
H -0.72046816 -1.1752002 -1.3254745
H 1.0319699 -1.4956259 -1.6568292
