11

C -0.880263 -0.8013563 -1.1907458
C -0.12901564 -0.06600604 -0.13948235
C -0.26192138 1.1328905 0.46769994
N 0.76228416 1.3064395 1.395142
C 1.4458443 0.2216592 1.3000438
O 0.9801932 -0.66520476 0.39823067
H -1.2599084 -1.7555451 -0.81415194
H -1.7298826 -0.19612385 -1.5182654
H -0.24700218 -1.0064796 -2.059436
H -1.0157408 1.8920716 0.31345224
H 2.3354125 -0.06234503 1.8475132
