11

C -0.40128094 1.0251899 0.13598005
C -0.021850193 -0.29741746 0.5981769
C -0.059914272 -1.7582015 0.3999137
N 0.43791643 0.5992818 1.3415735
C 0.35546094 1.6374235 -0.9905183
O 1.4743634 1.2934113 -1.2900869
H -1.3881923 1.4329364 0.34984022
H -1.0987569 -2.0987523 0.36347547
H 0.41064507 -1.9932609 -0.55886924
H -0.18090089 2.428425 -1.5537267
H 0.47250968 -2.2690358 1.2042414
