17

C 0.37103975 0.13125324 -2.091221
N -0.6936193 -1.200609 0.24089532
C 0.9104364 2.2025344 0.5103585
O 0.020799391 0.6557848 1.3876153
N 0.47064748 0.6004581 -0.7317613
C -1.0974828 -1.8881013 1.4504281
C -0.061004307 0.009272635 0.29437247
H -0.46900082 -1.7738632 -0.55462915
H -0.65318716 -0.17137682 -2.3541162
H 1.0463548 -0.7127284 -2.3018527
H 0.4828507 2.6761985 1.3907052
H 0.65574735 0.9454918 -2.769095
H 0.7054784 2.7745178 -0.39088133
H -1.5392466 -1.1602881 2.134131
H -0.25683293 -2.3744295 1.961315
H 1.9525706 1.9291266 0.62280965
H -1.845551 -2.6432421 1.2009264
