17

C -0.37527546 0.30211535 2.3019433
N -0.4254767 -0.58416444 1.1596245
C -0.3994781 -2.258036 -0.8477318
O 0.030658538 -0.91667324 -1.0506538
N 0.5160842 1.1137948 -0.22237788
C 0.004251647 -0.13788459 0.042382132
C 0.69216675 1.6181701 -1.5687294
H 0.31824476 1.7977278 0.48651597
H 0.2245655 -2.7618244 -0.10407256
H 0.64721626 0.6313319 2.5431726
H -0.2580039 1.835366 -2.0721605
H -1.4385475 -2.2895029 -0.50814015
H 1.2836285 2.535612 -1.5142466
H 1.2389501 0.8882457 -2.1682434
H -0.75988483 -0.23376536 3.173956
H -1.0024605 1.1992062 2.1707695
H -0.2966393 -2.7397196 -1.822008
