10

C -0.931253 0.37866423 2.3669896
C -0.4756095 0.21037722 1.2659322
C 0.064131625 0.008402244 -0.033472277
C 1.3404976 0.119345635 -0.5502435
N 1.3059893 -0.19809932 -1.8664807
N 0.08728157 -0.5002047 -2.2008278
N -0.6658137 -0.37871942 -1.1114577
H -1.3268431 0.5291907 3.3477476
H 2.2554598 0.40382832 -0.054357838
H -1.6538407 -0.57278496 -1.1638293
