10

C -0.81245047 0.3803902 0.9722957
C 0.050834697 0.07693468 -0.07947306
C -0.2406108 -0.52633077 -1.3414321
C -0.50802046 -1.0408328 -2.3924093
N 1.2800153 0.4841086 0.27756524
N 1.1393291 0.9877855 1.5951185
N -0.11168635 0.8690183 1.9926714
H 1.8273696 0.0017433459 1.28574
H -1.8852814 0.26024237 1.0216254
H -0.7394993 -1.4930598 -3.331702
