10

C -0.6997097 -2.5909798 -0.6646171
C -0.36901054 -1.4494225 -0.46525192
C 0.022521807 -0.10309209 -0.22450972
C 0.58092386 0.84696275 -1.1016841
N -0.114686325 0.4655155 1.0145632
N 0.69256335 1.8775705 -0.20421854
N 0.29469 1.699476 1.0524374
H -0.48165005 0.06192304 1.8645444
H -0.98698014 -3.6011605 -0.85647875
H 1.0613378 2.7932072 -0.41478494
