10

C -0.71668309 -0.43386889 -1.32296534
C 1.20253374 0.26846664 0.20566830
C -0.13757561 -0.04508456 -0.07610278
C -1.16700807 -0.75618187 -2.38707960
N 1.29861290 0.57940002 1.49297091
N 0.06038506 0.44769688 1.92499423
N -0.84790582 0.07909245 1.04980060
H -0.17470874 0.62446209 2.88907145
H 2.06128925 0.28030854 -0.44711568
H -1.57894000 -1.04429129 -3.32924261
