10

C -0.010777434 -0.1609914 0.026774798
C 0.85528725 -2.5187383 -0.74586093
C 0.3643266 1.0967945 -0.4740984
C 0.44764644 -1.4521706 -0.378057
N -0.91540885 0.020490522 0.9944285
N -1.0400803 1.328125 1.0315032
N -0.31002286 2.0297081 0.18770503
H -1.6675713 1.781786 1.676799
H 1.211181 -3.473692 -1.0648737
H 1.0654193 1.3486884 -1.2543206
