10

O 1.8800377 0.22188479 -0.7505741
C -0.9352449 -0.837858 0.4390627
N 0.16204822 1.1553649 0.5149247
C 0.50565016 0.37035418 -0.66052717
C -0.71791214 0.45878452 1.1280982
N -0.18732184 -0.92180365 -0.5909734
H -1.6110578 -1.6283835 0.7523958
H 0.073307395 0.90620744 -1.5236716
H -1.2140833 0.79923075 2.0319982
H 2.0445764 -0.5237811 -1.3407335
