10

O -1.9131445 -0.099526316 -1.0617474
C 0.7342993 0.5543754 0.9699492
N 0.44492453 -0.4358965 -1.0217823
C 1.3766462 -0.018291654 -0.12767407
C -0.7619591 -0.13162424 -0.35684466
N -0.5951868 0.48868206 0.8320586
H -0.29875997 -1.3199049 -0.35491738
H 2.4268298 -0.21552761 -0.2860942
H -2.6004198 0.20527449 -0.45396638
H 1.1867703 0.9724394 1.8610185
