10

O 0.74631602 1.43927390 -1.23233079
C -1.05260381 -0.10671933 0.93761549
N -1.12277739 0.58998405 -0.13253229
C 0.23413492 -0.84397715 1.00117358
C 0.09464691 0.27385884 -0.86324025
N 0.93883276 -0.59297459 -0.03217477
H -1.84426995 -0.12709894 1.68056506
H 0.56465721 -1.49445467 1.80582586
H 1.65847742 1.19918380 -1.43652935
H -0.21741406 -0.33707586 -1.72837263
