10

N -0.82480794 1.478017 0.89310056
C 0.17270054 -0.23232807 -0.1206924
N 1.0146756 -1.0056667 -0.89275926
N -0.9941837 -0.69751894 0.34124905
N -1.6132619 0.43820065 1.0025386
C 0.29837188 1.101455 0.2805632
H -2.0327985 -0.10910306 -0.009885665
H 1.1289052 1.779915 0.14128281
H 0.8596668 -1.9974334 -0.7933646
H 1.990732 -0.7555373 -0.8420324
