10

N 0.23549968 -0.7938346 -1.8369684
C -0.07911893 0.14777407 0.15100569
N -0.34331602 0.9561455 1.2524476
N 0.0069634193 -1.2007247 0.23056792
N 0.20229332 -1.7572178 -0.983596
C 0.07256618 0.39606723 -1.194347
H -0.107481286 -1.7968677 1.0355114
H 0.2501307 0.774135 2.0521617
H 0.07366069 1.3364633 -1.7233629
H -0.31119776 1.9380597 1.0165805
