9

O -1.70425311 -0.02450032 -0.27976384
C -0.61280512 -0.74718119 -0.75767609
C 0.42815578 -0.91630502 0.32507295
O 1.04801598 1.37587818 1.09219736
C 0.45770456 0.42219358 0.38559497
N -0.46367132 0.68609089 -0.73047456
H -0.72884408 -1.29131938 -1.69119764
H 0.82058979 -1.74040864 0.90099414
H 0.75510771 2.23555206 0.75525262
