11

C -0.52532744 1.0397307 0.54284275
C -0.07659606 -0.04962748 -0.43284366
N 1.3769242 -0.14053743 -0.45264396
C -0.7186298 -1.3483988 -0.10076393
N -1.1585362 -2.3814998 0.17259699
H -1.6125177 1.1587068 0.53157645
H -0.21956462 0.79116577 1.5657327
H -0.056544922 1.985329 0.2588076
H -0.40462953 0.22239088 -1.441778
H 1.681962 -0.8539722 -1.1055814
H 1.7134598 -0.42328736 0.46205458
