11

C -0.56679191 0.52043862 0.05845326
C 0.42768542 -0.05084175 1.09013775
N -0.11072244 1.48321307 -0.90966575
C -0.15407146 -0.88689557 0.02616747
N -0.17846021 -1.94594812 -0.65095225
H -1.55142766 0.75154624 0.45862799
H 0.07911416 -0.14899904 2.11544135
H 0.83012895 1.25064055 -1.21538617
H -0.70027478 1.43699384 -1.73591175
H 0.44934664 -2.64288014 -0.23593835
H 1.47547302 0.23273236 0.99902657
