11

C 0.21650259 -0.3459549 1.0987911
C -0.14305395 -0.8575642 -0.23478861
N 0.039707582 1.6709675 -0.49594676
C -0.5753708 0.5069799 0.0862902
N -0.024371685 -1.7038924 -1.1569173
H -0.31655532 -0.6938277 1.9803908
H 1.0245339 1.4928366 -0.67242
H 1.2584695 -0.08506632 1.2799443
H -0.38379177 1.860587 -1.3998734
H -1.6208814 0.6607844 0.34379724
H 0.52481145 -2.5058498 -0.82926744
