10

O -0.39595938 -1.8122374 0.60451585
C -0.57976663 0.19069493 -2.1707995
C 0.6237186 0.22051577 1.1584781
N 1.0043792 1.4257216 0.88701177
N -0.4631023 -0.12726465 -0.9602597
C -0.10111244 -0.5578065 0.1697945
N 1.329895 2.4804778 0.651533
H -1.5468693 0.6994873 -2.330356
H 0.8789233 -0.19260903 2.1233091
H -0.75010604 -2.3269799 -0.13322751
