10

O 0.9876257 0.50822014 -1.7992448
C 0.3830043 0.1808872 -0.65457875
C 1.1501746 -0.2808914 0.43276832
N 0.56866556 -0.6043603 1.566943
N -0.7577133 -0.49304363 1.6810356
C -1.4279135 -0.053985097 0.62855875
N -0.92245746 0.29851386 -0.56072754
H 0.29548264 0.7984387 -2.414478
H 2.2272842 -0.38143036 0.37444004
H -2.5041528 0.02765067 0.74528325
