10

O -0.8831076 0.83558905 0.99560034
C -0.095439464 0.052184395 0.32078856
C 0.95459515 -0.7435492 0.9931613
O 1.7479928 -1.4012452 0.3559727
C -0.40825826 0.06448883 -1.094638
O -1.441459 0.7584673 -1.3552268
H 0.6835431 0.72176766 -0.76163155
H 0.03984127 -0.68736637 -1.7588668
H -1.5253851 1.1057999 0.20847227
H 0.9276769 -0.7061362 2.0963678
