10

O -0.231728 1.3205155 -0.8831714
C 1.3123587 0.08027067 0.4918486
C 0.13121593 0.04403386 -0.4730666
O 1.8346814 -0.9217624 0.9107703
C -1.0241005 -0.6615932 0.21621843
O -2.1053333 -0.13197641 0.29383126
H 1.6322191 1.1017948 0.77885145
H -1.1700636 1.4232727 -0.6512745
H -0.8042526 -1.6577958 0.63815445
H 0.42500338 -0.59675986 -1.322162
