11

N -0.8749318 0.98933935 -1.341839
C -0.28132746 0.23803933 -0.31156984
C 1.0147985 0.30157804 0.15577134
N 1.07774 -0.55858 1.2097502
N -0.076351166 -1.1759619 1.4535756
C -0.9104636 -0.70036346 0.53894985
H -1.5620348 0.45916587 -1.8605541
H -0.19152568 1.3640212 -1.9869395
H 1.8697056 0.8780586 -0.16672492
H 1.8729948 -0.7563209 1.7931904
H -1.9386045 -1.0389762 0.5163899
