11

N 0.30543926 -1.1188549 1.0608141
C -0.8293754 0.70981956 0.8416524
C 0.7246949 -0.6434444 -0.21141268
N -0.30829257 0.6302124 -1.7173939
N -0.5390116 -0.28922716 1.660655
C -0.17816083 0.4659467 -0.40724388
H -1.5574569 1.4518751 1.1351231
H 0.7101723 -1.8513737 1.615425
H 0.44613943 -0.5321829 -1.6447037
H 1.7835674 -0.36441764 -0.23612773
H -0.55771595 1.5416468 -2.0967877
