11

N 1.6153412 -1.6003872 0.64103854
C 0.7564664 -0.73553765 0.30585888
C 0.8558447 0.67076397 0.741348
N 0.019563269 1.589114 0.4326946
C -1.0536699 1.2049714 -0.37662557
C -1.2028548 -0.04940674 -0.80419505
O -0.32678616 -1.0395181 -0.48612618
H 1.3938242 -2.516512 0.25368464
H 1.7133332 0.909466 1.3670415
H -1.7621132 1.9775554 -0.64449817
H -2.0089493 -0.4105091 -1.4302213
