11

N -1.79964550 -0.59439882 -0.77087078
C 0.70697445 -0.05530491 -0.97517845
C 1.34656681 0.50422253 1.28784885
N 0.14422385 0.43164275 1.74281210
C -0.55453865 -0.08065217 -0.51509169
N -0.31279504 0.95391473 0.45412885
N 1.09469431 0.98479251 -0.02286779
H -1.80708902 -1.49702302 -1.22163573
H 1.31105941 -0.43672451 -1.78472357
H 2.29634191 0.34248251 1.78165325
H -2.42579281 -0.55295150 0.02392511
