11

N -1.1128917 -1.5648898 0.7063056
C -0.59217906 -0.47460678 0.058392867
C -0.32006916 0.014622362 -1.1624055
N 0.008690839 1.3340069 -0.6237347
C 1.3059741 1.4203162 -0.05630874
N 1.0831363 0.9182353 1.1082281
N -0.31931266 0.7757921 0.714292
H 2.1989222 1.8737392 -0.46755883
H -0.4052672 -0.245179 -2.2069185
H -0.8743591 -1.6034844 1.6897137
H -0.9726449 -2.4485521 0.23999383
