9

O 0.75262445 0.2506407 -2.0774903
C 0.2632318 0.10994738 -0.8377607
N 0.9889515 -0.31334874 0.17551887
N 0.07966025 -0.28270334 1.1818848
C -1.1045932 0.14558911 0.7208711
N -1.0296559 0.40711144 -0.56649333
H 1.6831225 -0.009802869 -2.0545564
H 0.34758767 -0.5590338 2.11183
H -1.980929 0.25160003 1.3461965
