17

C 1.0542762 -0.011159683 -2.1994793
N 0.89800775 0.5199685 -0.19919677
C -2.1062844 -1.1998277 1.008069
O -0.51654106 -0.7464723 -1.2254236
N -1.0005021 -0.26435894 0.9675066
C 1.3852229 1.372902 0.84948593
C -0.20715922 -0.16787122 -0.13683736
H 0.37864393 -0.2308693 -3.0221634
H 1.7872624 -0.7840487 -2.01091
H -2.621445 -1.1697448 0.045765094
H 2.144181 2.0443184 0.42981443
H 1.8677231 0.81362695 1.6668253
H -2.799794 -0.8963406 1.7945675
H -1.7840486 -2.232537 1.1925321
H 1.4775678 0.9858983 -2.282947
H 0.59687907 2.0078616 1.28039
H -0.5539899 -0.0413458 1.8420017
