17

C 0.05800015 0.1592973 0.010071872
N -1.1153419 -0.55029464 -0.13033788
C 1.1640288 -1.7931867 -0.8657394
O 1.2027228 -0.4764546 -0.3550178
N 0.072761424 1.360051 0.42664924
C 1.3545672 2.0229688 0.48377314
C -2.3378289 0.026835257 0.3945261
H 1.203062 3.0151224 0.9197153
H 1.8050537 2.1564589 -0.50978404
H 2.0830631 1.4848787 1.1056235
H -2.326127 0.13332301 1.485788
H 2.1968646 -2.0322483 -1.1212256
H 0.81287444 -2.5109851 -0.11329222
H -1.0605198 -1.549792 -0.030246357
H 0.53423107 -1.863677 -1.7607746
H -2.4665546 1.020254 -0.036509242
H -3.180857 -0.6025501 0.09677964
