12

N 0.02607407 0.46331931 -0.94898816
C 1.19601391 0.36412251 -0.38105519
C -0.85150271 -0.04015413 -0.00569079
N -2.22099077 -0.02979915 -0.28156040
C -0.19368208 -0.43934223 1.12026660
O 2.37560305 0.72402844 -0.91209246
N 1.15791926 -0.16340580 0.85128112
H 1.95077725 -0.32685521 1.44949652
H -2.38119702 0.03663830 -1.27710296
H -2.71711477 -0.81695322 0.11238906
H -0.51999291 -0.85132035 2.06180318
H 2.17809252 1.07972150 -1.78874678
