12

N -0.2717742 -0.012275533 -2.048884
C -0.15910324 -0.039906632 -0.6538758
C -1.0316187 -0.31293228 0.33484665
N -0.35511485 -0.098682605 1.547828
C 0.9341068 0.33429787 1.3312063
O 1.7742063 0.66094905 2.1478856
N 1.050794 0.31225377 -0.05481731
H 0.2909405 -0.7268186 -2.497774
H -1.2333406 -0.120970875 -2.340565
H -2.0488906 -0.66994464 0.29647556
H -0.7648977 -0.09323791 2.4639542
H 1.8146921 0.76726836 -0.52628046
