11

C -1.113422 -0.57228106 -0.6391519
C 1.2138854 -0.11419586 0.40178272
O -1.0560174 0.26708075 0.6882551
C 0.17616001 0.79512507 0.70570767
O -0.0020268892 -0.4269991 -1.3282017
H 1.1281078 -1.1846052 0.5060336
H 2.201868 0.28407013 0.18673599
H 0.31126952 1.687927 1.3184265
H 0.4669969 1.0025159 -0.48413745
H -1.3154846 -1.5806913 -0.24165465
H -2.0113368 -0.15794626 -1.1137962
