11

C -0.8412787 -0.14079657 -0.7126635
C 0.40531838 -0.9267115 -0.28998536
O 0.6609439 -0.42737976 1.0095868
C 0.35027042 0.9360424 0.9213035
O -0.74198824 1.0663537 0.031253483
H -1.7635891 -0.6657864 -0.43736234
H -0.863033 0.07763421 -1.786822
H 0.2549877 -2.0064588 -0.2285915
H 1.2543964 -0.7139855 -0.9566043
H 0.06894356 1.2981074 1.9131895
H 1.2150288 1.502981 0.53669554
