10

O -1.120457 -0.61793995 1.4360995
C 0.54601055 0.21108334 -1.3007542
N -0.427158 0.56648254 -0.5076032
C -0.07967881 0.07864983 0.85125333
C 1.6113791 -0.5680805 -0.6054553
N 1.1278601 -0.6859021 0.62097216
H 0.5193535 0.47033587 -2.3542788
H -1.071091 -1.5252036 1.1039551
H -1.2403147 1.1236554 -0.72659504
H 0.1340965 0.94691926 1.4824065
