10

O 0.061002936 -1.4500368 1.6673653
C 0.037789863 -0.4775609 0.7384727
N 0.13870871 0.801318 0.9496026
C 0.058352176 1.3653331 -0.31093308
C -0.09048235 0.4052445 -1.2653908
N -0.10299594 -0.7988171 -0.5682525
H 0.16676609 -0.99614066 2.515234
H 0.11343842 2.4367042 -0.44613925
H -0.18716946 0.44363695 -2.339695
H -0.19541045 -1.7296813 -0.94026446
