10

O 0.7477847 1.2046334 -0.15111208
C 0.88265926 0.08621172 1.1071805
N 0.89368945 -0.9462347 -0.044022404
C -0.15069509 -0.43608814 -0.7015848
C -1.1968968 -0.21537602 0.3367093
N -0.6098062 0.045303486 1.4331446
H 1.7786047 -0.9500711 -0.5416466
H -2.2694147 -0.24957106 0.16761898
H -0.31211263 -0.50662005 -1.7754022
H 0.23618719 1.9678127 0.16911478
