10

O -0.13368909 0.50233131 0.53071994
C -0.15040405 -0.58818059 1.37966314
C 0.44001570 0.27763651 -0.70347770
C 0.57986527 1.26047571 -1.57582904
O -2.22956104 -1.92480023 1.65033072
C -1.25844595 -1.28982358 1.52152512
H 0.74445389 -0.75422921 -0.88262306
H 1.03547414 1.06195147 -2.53898187
H 0.24586248 2.26911701 -1.35627247
H 0.72642868 -0.81447836 1.97494487
