10

O 1.7497231 -1.1302613 1.0143479
C 0.80255884 -0.6091668 0.5025507
C 0.50704676 -0.08502024 -0.9289889
C -0.72119844 0.5828832 -0.3096695
O -1.5209495 -0.46647027 0.19743036
C -0.4717709 0.028257897 1.0324284
H 0.29346827 -0.8225965 -1.7065749
H 1.2943 0.597346 -1.2584395
H -1.1985111 1.5215417 -0.5645579
H -0.734667 0.38348636 2.021473
