11

O 1.6820742 0.6632555 -0.5202335
C 0.76000756 -0.045578595 0.24893203
C -0.334905 0.6910303 1.0439415
O -1.3491746 -0.15103826 0.41959384
C -0.42277452 -0.68584806 -0.43998602
N -0.55916905 -1.3760321 -1.4795103
H 1.2581925 0.90916365 -1.3513008
H 1.3144444 -0.75500745 0.87102795
H -0.3431797 0.57434 2.1295998
H -0.46464416 1.7368478 0.75298995
H -1.5408719 -1.5611327 -1.6750543
