11

O 0.54250228 -0.28384261 -0.94924336
C 1.07586396 0.39057203 0.18762920
C -0.18076946 0.76150988 0.97021127
O -1.10796113 -0.23500535 0.55734771
C -0.70737518 -0.73446156 -0.63675944
N -1.43715669 -1.49736113 -1.31870657
H 1.65419489 1.25057896 -0.15541155
H 1.72166195 -0.29655618 0.74498078
H -0.56006172 1.75200257 0.69570282
H -0.05760263 0.69953352 2.05320125
H -0.94329652 -1.80697003 -2.14895195
