11

C -0.5259414 1.041176 0.54447716
C -0.075781405 -0.046890147 -0.43215746
N 1.3790221 -0.14486334 -0.4493235
C -0.72077686 -1.3463216 -0.10470039
N -1.1586318 -2.3804803 0.16437206
H -1.613341 1.157527 0.5334065
H -0.22085814 0.7942255 1.5674596
H -0.05879399 1.9872161 0.26044363
H -0.40268698 0.22684799 -1.4409697
H 1.682193 -0.85591906 -1.1073165
H 1.7155966 -0.43251833 0.46430856
