11

C 1.1566054 -0.2352586 0.4231617
C -1.7296497 -0.63617575 0.9330219
N -0.4610625 0.68607646 -1.1755562
C -0.16581811 -0.30987123 -0.29665443
N -1.1905873 0.25433293 1.5039753
H 1.9446629 -0.46566588 -0.3039016
H 1.1891887 -0.96418864 1.2347671
H 1.3300648 0.759291 0.8404194
H -1.3477627 0.58434856 -1.6542423
H -0.33772954 1.6231314 -0.8155272
H -0.38791174 -1.2960202 -0.68946356
