11

C -0.2686675 0.1861931 0.3569622
C 1.2154607 0.25287804 0.32949463
C 1.7804618 1.445072 -0.43320492
O 1.7959332 -0.61990726 0.8917643
C -0.98952705 -1.0752077 -0.023834966
N 0.8510336 1.8690969 -1.1362528
H -0.5355472 -1.5686952 -0.8868498
H -1.0018222 -1.7746592 0.8222028
H -0.1226397 1.4491389 -0.89720255
H -2.0358312 -0.84460986 -0.26099244
H -0.6888544 0.68070036 1.2379134
