11

N -0.52912069 -1.22887978 -0.85209916
C 0.17474063 -1.00403176 0.28634346
O 0.76673395 -1.86457054 0.90988961
C 0.26334137 0.43675875 0.73272403
C 1.07720252 1.45370210 0.00881306
O -0.71619673 1.28785463 0.04121918
H -0.53047785 -2.16338223 -1.22811307
H 0.18894888 0.49835275 1.81782549
H -0.89980465 2.05058409 0.60813786
H -1.02099435 -0.49113818 -1.32390307
H 1.22562686 1.02474978 -1.00083770
