11

N -0.0661879 -1.6392741 0.1311457
C 0.20572081 -0.5753242 0.93070185
O 0.7894824 -0.6258321 1.9943203
C -0.24929641 0.7451569 0.35943222
C 0.25466722 1.1942307 -0.9422821
O -1.0697308 0.6984519 -0.80240375
H -0.7247154 -1.5270845 -0.62312514
H 0.12619853 -2.56247 0.4890755
H -0.5296733 1.4844615 1.1072161
H 0.33367 2.2615206 -1.144555
H 0.9298648 0.5461629 -1.499526
