11

N -0.5263135 -0.77864337 1.2566416
C -0.507161 -0.942835 -0.09385424
O 1.3170836 0.6962244 0.017264333
C -0.018378448 1.4963498 -0.8254573
C 0.34605616 0.055958234 -0.8488644
O -1.1624414 -1.7689549 -0.70129836
H -0.74205905 1.6705016 -0.0143658435
H -1.0474607 -1.4514993 1.7981192
H 0.17126292 -0.21190569 1.7119974
H 1.4011649 1.6160308 -0.5496124
H 0.7682465 -0.38122642 -1.7505699
