11

N -0.98826 -0.92594236 -0.82592976
C 1.350131 1.2004197 -0.099155
O -0.36976066 1.3669345 0.4098459
C 0.004628993 -1.0547118 0.09037743
C 0.52721626 0.23391877 0.6814077
O 0.51767546 -2.1121287 0.40413803
H -1.3980198 -0.0341748 -1.0395856
H 0.7363707 0.10211581 1.7423769
H -0.22952609 2.0294006 1.1014656
H -1.2954767 -1.7558188 -1.3071845
H 1.1450206 0.94998753 -1.1577569
