12

O 0.508725 -1.148673 0.77204996
C 0.93100035 0.6831908 -0.87407243
C -1.0515256 0.6246686 0.5833998
O -1.8157526 -0.22998609 -0.23676609
C 0.42824486 0.23357907 0.4686914
O 1.383487 -0.3856809 -1.4979955
H 1.0040212 -1.570085 0.05417524
H 1.7196391 -0.11452451 -2.3645873
H 1.0079546 0.82285434 1.1983762
H -1.3560929 0.5620705 1.638137
H -1.5605016 -1.1251782 0.026561253
H -1.1991996 1.6477644 0.23203023
