12

O 1.0424908 1.1015227 -1.0127757
C 0.59986436 1.0152313 0.31839386
C -0.4465188 -0.08975888 0.44899258
O -1.492871 0.18508263 -0.44427037
C 0.15783384 -1.4359766 0.1140197
O -0.32746795 -2.140701 -0.73704827
H 0.23615186 1.1319427 -1.5484824
H 0.15906113 1.9585695 0.67022306
H 1.4739072 0.7933844 0.9413375
H -0.80697346 -0.13402015 1.4908005
H -1.6398011 -0.63815963 -0.9404634
H 1.0443231 -1.7471167 0.6992725
