11

C 0.5968902 0.7344603 2.2420835
C 0.3049095 0.16718926 0.9270147
C 0.07368131 -0.3156703 -0.15120062
C -0.14742629 -0.9701189 -1.4401361
O 0.32399738 -2.0548844 -1.7123055
N -0.9364282 -0.2631008 -2.299017
H 0.46301353 -0.02133932 3.0216377
H -0.0632622 1.5776608 2.465144
H 1.6312279 1.0841671 2.2838361
H -1.0364933 -0.6239651 -3.2342703
H -1.2101098 0.6856014 -2.1027858
