11

C 0.26037428 -0.42702714 -1.3342735
C -0.73455954 -0.12371398 -0.31200737
C -0.6387705 1.223922 1.9453961
C -0.6211238 0.6960317 0.6778007
O 0.6398508 0.41023034 -2.134308
N 0.70463103 -1.7332189 -1.3351269
H 0.11659362 -2.4303772 -0.9090318
H -0.73419356 2.295154 2.0926392
H 0.24278131 1.4893535 0.6497849
H -0.45512715 0.6027841 2.8204446
H 1.2195436 -2.0031385 -2.1613176
