11

C 0.82333803 0.6557074 0.8452631
C -0.7377064 -0.97157913 -0.079019
C -1.807928 -1.1189935 -0.883025
C -0.49710336 0.37922654 0.31718403
O 0.9384715 0.28674647 2.004328
N 1.7812889 1.3239436 0.1435662
H -2.5135198 -0.2965679 -0.9753294
H 2.5277002 1.7245355 0.69262564
H -0.04119729 -1.790067 0.109491006
H -1.9730285 -2.0091002 -1.4850341
H 1.4996849 1.8161483 -0.6900505
