10

N -0.8265608 0.87152815 1.3521979
C -0.1720366 0.176828 0.35022908
C 0.35158816 -1.0664988 0.21301456
N 0.98764443 -1.1470925 -1.0246544
C 0.8115793 0.00871466 -1.5514557
O 0.112188525 0.87998945 -0.772989
H -1.5011051 1.5393808 1.0028104
H -1.2358867 0.26728627 2.0492911
H 0.3334716 -1.9036644 0.8958761
H 1.1391171 0.37352806 -2.5143201
