10

N 0.37384003 1.1285313 -1.199919
C -0.48035926 1.5352848 -0.30513558
C 0.74345064 -0.27232316 -0.8974263
N -0.31714672 -1.6790204 0.91185373
C -0.049771268 -0.53280336 0.17541288
O -0.85132587 0.54836595 0.5010287
H -0.12829536 -1.5776162 1.9017164
H -0.93630034 2.5072913 -0.1823179
H 1.4345428 0.797591 -1.4390705
H 0.21136521 -2.4553013 0.53385776
