10

O 1.00289485 1.13285590 -1.15200565
C -0.78627983 0.06576456 0.42899301
N 1.14083113 -0.82627557 0.40435463
C 0.10695446 -0.89152774 1.17610714
C 0.39427585 0.14802245 -0.45533015
N -0.77334693 -0.51219716 -0.97435662
H -1.53559692 0.78202839 0.74014021
H -0.02996344 -1.55375661 2.02487245
H 1.72183470 1.48949675 -0.61216311
H -1.24160391 0.16558899 -1.58061186
