11

C 1.3814948 0.0076671736 0.023041524
N 0.24151984 -0.62461454 -0.6298004
C -0.9972865 -0.5005323 0.10938429
C -1.429839 0.90204066 0.3358395
N -1.7133757 2.0138514 0.4700067
H 1.249014 1.0838585 0.21154219
H 2.267578 -0.1353137 -0.60183674
H 1.5663068 -0.49011594 0.9814539
H 0.11700656 -0.24254897 -1.5612062
H -1.7958052 -1.0266464 -0.4241718
H -0.8866131 -0.9876453 1.085747
