13

C 0.58312446 -1.5845869 -1.1652503
N 0.2279432 -0.6423332 -0.12736727
C -0.052161634 0.66130984 -0.3774186
O -0.074659824 1.170813 -1.4823852
C -0.33499435 1.477342 0.87860024
O -0.56241834 0.69676095 2.0371885
H -0.11434913 -2.4298224 -1.1829509
H 0.5339853 -1.0585796 -2.1192663
H 1.5996561 -1.966087 -1.0203742
H 0.26905376 -0.9135773 0.844366
H -1.1675996 2.1553783 0.6519874
H 0.5493732 2.0912702 1.0816379
H -1.4569533 0.34211233 1.9812325
