11

N 1.75508085 -1.16692618 -0.38714849
C 0.55757180 -0.85663624 0.22281526
O 0.04046581 -1.55088745 1.07325864
N 0.01866377 0.34853506 -0.20175554
C -1.17364253 0.85076482 0.30474914
N -1.58345091 1.99158894 -0.06275593
H 0.53901746 0.96997269 -0.80537093
H -2.46390025 2.21309236 0.39108800
H -1.65254581 0.16077401 1.00179244
H 2.04928756 -2.11529828 -0.20551658
H 1.91345222 -0.84497931 -1.33115572
