11

N -1.4394753 -0.3092129 -2.0913708
C 0.593149 0.12938581 0.79503274
O -0.09819825 -0.35646802 1.7619739
N 1.7199547 0.572447 1.2867529
C -1.0890871 -0.35618588 -0.87435406
N 0.1521418 0.13997278 -0.49286056
H -2.367799 -0.7087439 -2.1994345
H -1.6509737 -0.7527516 -0.028373882
H 0.7340848 0.5185095 -1.2254808
H 1.0004997 0.0754165 2.2936778
H 2.4457035 1.0476307 0.7744371
