11

N -0.6981851 0.40304947 1.9826437
C 0.019920014 -0.2621835 1.0146018
O 0.7347475 -1.214299 1.2447977
N -0.11967259 0.28649446 -0.25128603
C 0.52671707 -0.22909512 -1.3644122
N 0.40259615 0.3510881 -2.4861395
H -0.72933805 -0.088604175 2.8638785
H -1.5502074 0.87692904 1.7251836
H -0.61738384 1.1543334 -0.39311936
H 1.0995446 -1.1289023 -1.1413282
H 0.9312616 -0.14880995 -3.1948197
