11

N 1.3047656 -1.6253948 0.4975825
C 0.11906117 -1.0327756 0.116438136
O -0.8946141 -1.6564864 -0.12038371
N 0.18537578 0.35154584 0.067687474
C -0.90740865 1.1378485 -0.27571657
N -0.81370467 2.4003186 -0.23245718
H 1.299951 -2.6257875 0.3628656
H -1.7743496 0.5411469 -0.5649667
H 2.1721907 -1.16724 0.25768918
H 0.99877304 0.8480035 0.40416765
H -1.6900402 2.82882 -0.5129063
