11

O -1.2308091 0.071757734 -1.4852016
C -1.2787414 -0.28038475 -0.07652816
O -0.67917895 -1.5710266 -0.3335185
C 1.0913037 0.5958073 1.1280588
C 0.14643706 0.28448755 0.077915266
C 0.0100355465 -0.61162686 -1.1663696
O 0.5867734 1.5789804 0.1821992
H 0.74266773 0.72916293 2.1504388
H 2.1397035 0.3328086 1.0010229
H -2.2077467 -0.19593222 0.48360035
H 0.67955524 -0.9340341 -1.9616176
