11

O -0.8220459 1.8130603 1.1083252
C 0.72107786 -0.38021407 1.078261
O -0.4787922 -0.49129388 1.7938825
C 0.09995121 -0.15372628 -0.26512006
C -0.46419623 0.5693433 0.86853874
C -0.21885738 -0.888593 -1.4682028
O 0.72089726 0.21056314 -1.4415694
H 1.7048687 -0.40763125 1.5216956
H 0.22025578 -1.8721488 -1.6199664
H -0.3276278 2.2893932 0.40748498
H -1.1555312 -0.6887529 -1.9833294
