11

O -1.7995245 0.6578733 -1.6427013
C -1.158419 0.028678067 -0.8659767
O -1.2149318 -1.3162153 -0.6073962
C -0.21974243 -1.2395878 0.45445383
C -0.045554884 0.23574793 0.13957368
C 1.1272864 1.0985373 0.067186944
O 0.090443656 1.2973574 1.0273601
H 0.62906414 -1.8943597 0.25055337
H -0.66702855 -1.4587626 1.4258878
H 1.1877991 1.8531222 -0.71622795
H 2.0706077 0.73760897 0.4672863
