10

C 0.09437560 0.99390872 -0.42751109
C -0.62413079 -0.13699608 -1.04131759
N 0.16268733 -1.33761150 -1.35429405
N -0.32764150 -1.19399022 -0.12408243
C 0.45096347 0.63159451 0.85423024
C 0.18511013 -0.74449035 1.05044762
H 0.19778179 1.97526390 -0.87470556
H -1.61781829 -0.02955861 -1.47750724
H 0.95555284 1.26479101 1.57484348
H 0.52311956 -1.42291165 1.81989667
