10

C -0.22353676 0.975998 -0.37047988
C -0.6289266 -0.04054633 -1.2349849
N -0.45708287 -1.336082 -0.9856657
N 0.1301063 -1.7118379 0.13943762
C 0.5402772 -0.78866816 1.0045424
C 0.39024714 0.5823212 0.80252135
H -0.38630787 2.0190399 -0.61854094
H -1.1190597 0.18306172 -2.1801064
H 1.0129815 -1.1796461 1.9037349
H 0.7413018 1.2963594 1.5395416
