10

O -0.65028596 0.0929282 1.3995429
C 0.49694982 0.8959433 0.18227184
N 1.3098359 -0.11230209 -0.022782344
C -0.7829583 -0.28981125 0.17840888
C 0.33119863 -1.2038399 -0.2855445
N -0.8411298 0.7802747 -0.6990895
H -1.4603133 1.4797469 -0.28795338
H 0.54148203 -2.057281 0.35808665
H 0.27976343 -1.4807324 -1.3402927
H 0.77545756 1.8950735 0.5173522
