10

O 0.036902506 -2.5527673 0.5150775
C -0.23761666 -1.9908236 -0.5106496
O -0.23819517 -0.6669617 -0.69693446
C 0.13384771 0.09423429 0.46382934
C 0.10331825 1.5120183 0.11362177
C 0.08900325 2.6857529 -0.13790846
H -0.53041905 -2.4854198 -1.4492034
H -0.56637526 -0.120886706 1.2779857
H 1.1343118 -0.20528089 0.79141474
H 0.07522255 3.730135 -0.36723298
