10

O -0.99120802 -2.44664714 0.57252812
C -0.37733945 -2.06836983 -0.37585316
O 0.07318709 -0.78865749 -0.56650070
C -0.20495812 0.11662799 0.39713091
C 0.21498725 1.40471546 0.30969621
C 0.98185092 1.81451793 -0.82140352
H -0.07579560 -2.66780665 -1.24251832
H -0.77570411 -0.27737925 1.23441848
H 1.23419283 2.88530904 -0.66560633
H -0.07921285 2.02769045 1.15810846
