10

O 0.117564805 -0.85004735 -0.4602805
C 1.8708209 0.85989064 0.8317616
O -1.9668459 -1.4554198 -1.1443927
C -0.7980694 -1.6716142 -1.0632948
C -0.34258333 0.2987145 0.082031555
C 0.48260665 1.1688306 0.718528
H -0.021728467 2.0560749 1.1095504
H -1.4131889 0.4522322 -0.028779982
H -0.265458 -2.5472023 -1.4519235
H 2.3368816 1.688541 1.4067997
