10

N 1.2779319 -0.30165306 0.69531935
C 0.12947653 -0.76414114 1.0901209
C -0.78323007 -0.49878624 0.005438279
N -1.4444357 0.6501004 0.10531701
C 1.0651639 0.166124 -0.60553885
O -0.020107018 -0.5113347 -1.1475788
H 1.9207473 0.27797896 -1.2666539
H -1.8887849 0.8653647 -0.7871943
H -0.0912755 -1.0957638 2.0960023
H -0.16548643 1.212111 -0.1852321
