10

N -0.82514995 0.86918247 1.3532282
C -0.1712452 0.17769267 0.34959322
C 0.3510181 -1.0659323 0.2126135
N 0.98440623 -1.1461238 -1.025815
C 0.8107794 0.008495234 -1.5527235
O 0.114194214 0.88365144 -0.7720023
H -1.4985888 1.539383 1.0060967
H -1.2348349 0.26173288 2.048294
H 0.33272955 -1.9018555 0.897087
H 1.1366916 0.3737738 -2.5163717
