10

C 0.88187945 -0.34400293 0.83375317
C -0.8765982 0.7582725 -1.778976
N -0.33031 -0.6069016 1.1704168
C -1.5199243 -0.88139147 1.1900463
C 1.135915 0.45745078 -0.34741068
N 0.19909014 0.60982484 -1.2081479
H 1.6906843 -0.73652714 1.4387732
H -2.166787 -0.26135492 1.8197869
H -1.1121622 0.07582773 -2.6025565
H 2.0982122 0.92880225 -0.5156861
