11

N 0.9503578 1.146291 1.1206106
C 0.1198381 0.32373738 0.35668617
C -1.2033463 0.1305425 0.31136748
O -1.511061 -0.7300227 -0.7379368
C -0.34863585 -1.0919597 -1.3584533
O -0.2764289 -1.8099788 -2.3178418
N 0.6630661 -0.46921965 -0.6569513
H 1.6156917 0.6207886 1.6772842
H 0.4201006 1.7586412 1.7254239
H -2.026651 0.50113666 0.90127784
H 1.5970689 -0.3799564 -1.0214674
