9

O 0.06084583 2.0094283 0.43897218
C 0.019146757 0.6777995 0.27464193
N -0.024877494 -0.17839928 1.319452
N -0.03556231 -1.3220226 -0.45819643
N -0.058293484 -1.3973862 0.8650581
C 0.013346176 -0.03518997 -0.8988689
H 0.04341008 2.1767182 1.3926125
H -0.055056106 -2.1737316 -0.995535
H 0.037040558 0.24278313 -1.9381362
