12

O 0.77943710 2.30595739 0.84459678
N 0.57644308 0.71362631 -0.83150846
C 0.41211257 1.22231779 0.44852700
C -0.28143712 -0.99946179 0.45178909
N -0.25664384 0.25378147 1.18572829
C -0.22124035 -0.48854071 -0.99778748
H 0.65013136 1.39711036 -1.56979890
H -0.08695994 0.26215571 2.18098675
H 0.59420148 -1.62242273 0.67753036
H -1.18836555 -1.57581461 0.64849287
H -1.22940385 -0.26168692 -1.36641380
H 0.25172509 -1.20702191 -1.67214286
