12

O 0.87305295 1.9657743 -1.2860537
N 1.0104468 1.4097652 -0.00510814
C 0.30948073 0.36612678 0.10351324
C 0.13466507 -0.6070426 1.2416905
N -0.56035817 -1.5128094 0.2954851
C -0.5883874 -0.47983903 -0.7697242
H 1.4725622 2.719648 -1.2354859
H -0.49029794 -0.21467467 2.0547478
H 1.0516036 -1.0255518 1.6687374
H -1.4815868 -1.7955097 0.6095042
H -1.5663303 -0.017038127 -0.95360637
H -0.16485071 -0.8088486 -1.7237003
