12

O -1.1481726 2.0651267 -0.75311285
N -0.7963708 0.2980444 0.8931466
C 1.0320892 -0.5146675 -0.37164268
C -0.62913245 0.9943581 -0.26836947
N 0.32232067 0.56506515 -1.0547696
C 0.0025367471 -0.93084466 0.7231033
H 1.2683418 -1.344464 -1.0412592
H -1.7122475 0.26604927 1.3168015
H 1.9599913 -0.14726733 0.08162645
H 0.47384608 -1.2229285 1.6637406
H -0.14071894 1.7237629 -1.5555997
H -0.6324838 -1.7522345 0.36633512
