12

O -0.78689194 2.2676542 0.93640316
N -0.18258289 0.8956248 -0.8351497
C -0.4177353 1.2013472 0.497329
C -0.014347876 -0.5377954 -0.9968798
N -0.15286516 0.050967198 1.2289253
C 0.5221578 -0.925329 0.3916142
H 0.26297984 -1.9515147 0.66210234
H 0.13660969 0.19390711 2.1855729
H 1.6135743 -0.8104299 0.42890543
H -0.9692151 -1.0412685 -1.1930559
H 0.6888369 -0.78257793 -1.7970544
H -0.7005201 1.439415 -1.5087122
