12

O -0.23458664 -0.110672414 -1.8011104
C -0.33003294 0.6493837 0.9736933
C 0.6661 0.051449858 -0.8520351
O 0.012444946 1.4099798 -0.23330505
C 0.31730947 -0.6536934 0.48588046
O -0.54454976 -1.7330498 0.28868878
H 0.15081811 1.1222368 1.8310574
H -1.4122351 0.5956762 1.1077023
H -0.8972528 -1.5977542 -0.608288
H -0.6147418 0.98812145 -1.1480627
H 1.7073575 0.2504321 -1.1247078
H 1.1793692 -0.9721102 1.0804867
