12

O 1.55536911 0.01151913 -0.95699066
C 0.93875718 0.09552776 0.29710586
C -0.48600269 0.68997543 0.20480036
O -0.83392938 1.22552742 -1.03549465
C -0.93459153 -0.74196735 0.53402443
O 0.43386761 -1.15073168 0.74498160
H -0.12416642 0.96952239 -1.64886625
H -0.71861320 1.41363672 0.98975963
H 1.64940711 0.53876157 1.00229726
H -1.53748947 -0.88450917 1.43563340
H -1.39248612 -1.26244793 -0.31647967
H 1.44987759 -0.90481413 -1.25077139
