12

N 0.85820425 -1.7350647 0.56892836
C 0.26846924 -0.5451641 0.16950603
C 0.932015 0.39375603 -0.6269761
N 0.34723255 1.5067935 -1.0614653
C -0.9207542 1.6982932 -0.70051646
N -1.6519408 0.880547 0.05627845
C -1.055984 -0.2272609 0.48519978
H 1.8662293 -1.7356912 0.60617703
H 0.44154245 -2.1760077 1.3755264
H 1.9674711 0.23396717 -0.9222302
H -1.4034098 2.6042373 -1.0547692
H -1.6490748 -0.8984054 1.1043415
