12

N -1.78870088 0.23680639 0.97001585
C 0.21951855 0.11594290 -0.07669539
C 1.12072110 -0.68058345 -0.95224818
N 1.66748895 0.08895907 0.14610815
C -1.52570019 1.31502938 0.08453976
N -0.41232016 1.30895932 -0.54530379
C -0.73666261 -0.49563046 0.87037539
H 1.89599613 -0.51340235 0.93045909
H -0.59292253 -1.42204476 1.41694385
H 1.34256625 -0.28740603 -1.93967085
H -2.26620856 2.09979461 -0.02832770
H 1.07622422 -1.76642441 -0.87619588
