9

N -0.38051936 -1.0519775 1.5972687
C -1.4146464 0.602553 0.2821381
O 1.1747408 0.9492697 -0.73466504
C -0.48152524 -0.49340484 0.48021817
O 0.16436893 -0.9368246 -0.66977
C 1.0251939 -0.1966865 -1.3840083
N -2.1763167 1.4551723 0.12255836
H 0.29594797 -1.8146971 1.5579286
H 1.7927562 1.4865955 -1.2516687
