11

O 1.9163471 1.026588 -0.83857363
C 0.6806456 1.3288057 -0.8346073
C -0.15803556 -1.4882945 0.853488
C -1.4485697 0.0684631 0.15882233
N 0.68108636 -0.6509176 0.27352017
C -0.12873785 0.37781698 -0.18831928
N -1.4613298 -1.1009083 0.80968696
H 0.34666258 2.250393 -1.304088
H 0.15594858 -2.4110694 1.3266538
H 1.7703047 -0.02994217 -0.22255108
H -2.354322 0.62906486 -0.034032088
