11

O 0.40036614 1.75804263 1.68815346
C 0.62663224 -0.39726436 -1.67052851
C -0.14963799 -0.00372367 0.25070125
C -0.29073813 0.66342439 1.42718422
N 0.74901205 0.47492856 -0.70869813
C -0.76128077 -1.19521783 -0.27221566
N -0.27422940 -1.42957667 -1.46389578
H 1.19360110 -0.33195171 -2.59384082
H 0.96637535 1.92844396 0.91322106
H -0.95844859 0.36001737 2.22960516
H -1.50165191 -1.82712285 0.20031385
