10

C -0.7661296 0.20062019 -0.51771754
C 1.0744482 -0.21497016 0.31551322
N 0.63585824 0.1931357 -1.0465324
C -0.6805348 0.87713504 0.8175327
C 0.09187454 -1.0177525 -0.4471449
N 0.4535807 0.62599194 1.3392749
H -1.5612817 0.32108724 -1.2433999
H -1.44186 1.4951655 1.2830341
H 2.1146486 -0.49800366 0.43582398
H 0.07939551 -1.9824092 -0.93638396
