9

N -1.64069109 -0.44915234 -0.63386985
C 0.78197741 -0.20129715 -0.39149531
C -0.61525314 -0.03371502 -0.01414711
N 1.72287264 0.29438726 0.36210518
N 2.54136154 0.72215338 1.01150869
O -0.76147942 0.65480995 1.14133337
H 1.09403895 -0.72818596 -1.27845148
H -1.40352176 -0.95988436 -1.47926498
H -1.71930521 0.70088405 1.28228202
