9

N 1.3153493 0.80870295 2.4930103
C -0.26546988 -0.14769961 0.9044236
C 0.041358404 0.018695908 -0.4914229
N 0.58485717 0.368526 1.7592188
N -0.6201847 -0.38493392 -1.5461015
O 1.0922456 0.63518476 -0.91605747
H 0.4702148 0.2556073 -1.9846245
H -1.1273388 -0.6542928 1.313287
H -1.4910319 -0.89979076 -1.5317329
