12

C 0.55569935 -0.6485926 -1.8486112
C -0.08091631 -0.74032795 -0.47885677
O -0.6050438 -1.7441474 -0.04862888
N 0.009320753 0.4226551 0.2688952
C -0.4730196 0.5397419 1.562935
N -0.34599468 1.6428953 2.176364
H 0.13132253 -1.4260482 -2.4833503
H 0.40191308 0.33209357 -2.311142
H 1.6348755 -0.822501 -1.7600754
H 0.4490879 1.2468557 -0.11823266
H -0.9326374 -0.37800786 1.9323505
H -0.74460727 1.5753834 3.1083522
