12

C 0.88103884 -1.2090917 0.76805776
C -0.5895328 0.4396947 -0.22259909
O -1.5812736 0.08186045 0.5251144
N 1.9846386 -1.8217489 0.70346177
C -0.9451667 1.6257946 -0.92361283
N 0.57592845 -0.23278429 -0.18612328
H 0.08382373 -1.3423512 1.501548
H 1.2879895 -0.025432723 -0.87169456
H -1.9214448 1.2078005 0.16368623
H -1.6690525 1.4260894 -1.714113
H -0.17154679 2.334571 -1.2161809
H 2.0645978 -2.484402 1.4724555
