11

N 1.1697606 -0.5216452 -1.7312404
C 0.1699099 -0.4642119 1.2953091
C 0.5861529 0.5858115 0.3308066
N -1.9145529 -0.14372405 -0.20820428
C -0.6891589 -0.1258524 0.37086302
N 1.4783918 0.22424914 -0.8294901
H -1.8982658 0.08950064 -1.192099
H -2.4781618 -0.9589222 -0.0087487465
H 0.45570168 -1.0376444 2.1569374
H 2.3971155 0.7155939 -0.7795762
H 0.7231071 1.6368449 0.5954425
