11

N 0.96609671 -0.15586976 -1.91833484
C -0.69000384 -0.08713240 0.38029053
C 0.08290483 -0.89713446 1.05378572
N 1.46827605 0.15641442 -0.86237098
C 0.71871918 0.29577746 0.43833978
N -1.89647582 0.36188445 -0.04401835
H -2.63641046 -0.32678588 -0.05869609
H 0.24125454 -1.77446981 1.65221128
H 1.11335726 1.13916171 1.00967472
H 2.47980693 0.38630582 -0.75319433
H -1.84752552 0.90184824 -0.89768738
