11

N -0.81528506 0.25651943 2.21448186
C -0.10712148 -0.52262350 1.39214681
O 1.43257275 -1.54733978 -0.74100706
N -0.00527396 0.02930332 0.15692487
C 0.73697620 -0.57532602 -0.88217565
N 0.60921313 0.11186641 -2.07650098
H -0.95842881 -0.05457850 3.15856345
H -1.25517178 1.14315198 1.97223528
H -0.24895425 0.59580334 -2.27811218
H -0.39832005 0.94926206 -0.05883013
H 1.00979350 -0.38603852 -2.85772601
