11

O -0.8145173 2.1582518 -0.70064944
C -0.42179385 1.083219 -0.3100581
C 0.3460996 0.0003000428 -1.077632
C 0.5424658 -1.0857081 -0.05749839
C -0.015582632 -0.69369173 1.089795
N -0.5886237 0.5811986 0.96406746
H 1.283238 0.41989666 -1.4595715
H -0.23888963 -0.31446633 -1.947793
H 1.0498061 -2.023353 -0.23219462
H -0.07326139 -1.2105294 2.0396552
H -1.0689408 1.084883 1.6918794
