11

O -1.71662896 1.42466707 -0.18105955
C -0.65169492 0.62386372 -0.24026794
C 1.10303643 -0.42881456 -0.87606381
C 0.94140223 -0.90769286 0.36514471
C -0.28092111 -0.23710569 0.92855766
N 0.12013024 0.51972653 -1.25812194
H 1.87560573 -0.68050473 -1.59347645
H -1.77156674 1.88465122 -1.03122076
H 1.54981681 -1.63335963 0.88496972
H -1.08790048 -0.93399304 1.18164178
H -0.08127904 0.36856251 1.81989660
