10

O -1.9199802 -0.4359773 -0.099479996
C 0.1302063 0.8013001 -0.61528456
C -0.56980693 -0.44185826 -0.14521319
O 1.4165679 0.621599 -0.20414865
C 1.43669 -0.08904868 0.985516
O -0.32400027 1.7714835 -1.1481674
H 0.1200617 -0.4291938 1.0000402
H -2.2249317 0.4669173 0.06322338
H 2.141456 -0.9233926 0.80665505
H -0.20626296 -1.3418294 -0.64314085
