10

O -0.019018501 -1.3763882 -0.958496
C -0.40560699 -0.3874258 -0.051709265
C 0.6851954 0.006603121 0.9447613
O 0.632078 1.3865054 0.47544506
C -0.25869787 1.0744535 -0.5029601
O -0.690408 1.7726989 -1.3641958
H -0.65657705 -1.3966461 -1.681684
H -1.3842589 -0.58173716 0.40971997
H 1.6546369 -0.44272986 0.72355855
H 0.44265693 -0.055333793 2.0055604
