10

O -0.94862574 0.3147685 -1.6067566
C 1.506227 -1.3768028 0.003096115
C -0.2533583 -0.03328279 -0.7003134
O -1.363912 1.4400151 0.8130399
C -0.3071695 0.5353143 0.69634205
O 0.6997132 -1.0466825 -0.9802717
H -0.42003495 -0.28624883 1.4164172
H 2.1262496 -2.1648533 -0.47939283
H -1.7055519 1.6163357 -0.07537964
H 0.66646266 1.0014365 0.91321874
