10

O 1.2775317 -1.2432156 1.0770067
C -1.2203878 0.49016476 -0.12820843
C 0.25975576 0.7163827 -0.37849802
O -0.9167823 -0.79138917 0.507237
C 0.43723294 -0.5803786 0.26912358
O 0.71504694 -0.4649823 -1.0963471
H 0.83451796 1.6270689 -0.47638795
H -1.6660889 1.1757287 0.59664863
H -1.8562384 0.35503954 -1.0057018
H 2.1354125 -1.2844192 0.63512725
