10

O -0.20183461 -0.85336265 -1.07727090
C 0.48297199 0.34311794 -0.61069321
C 0.04225008 -0.71625512 0.29263102
O 0.51211783 -1.75181076 1.00324966
C -0.58688666 1.18212855 0.06466452
O -0.93556344 0.04849230 0.92002470
H 1.40837097 0.62387841 -1.09452547
H -0.20027853 2.00681908 0.66839031
H -1.43616658 1.48963433 -0.54911332
H 0.91501912 -2.37264212 0.38264219
