11

N -0.41263404 -0.55000865 -1.464369
C 0.19435191 -1.2946779 -0.63946474
O 0.7706567 -0.8189451 0.47256625
C 0.6980049 0.5947138 0.6320072
C -0.73075885 1.0797276 0.8005625
O -1.028248 2.2418923 0.70603985
H -0.78597325 -1.0937824 -2.2364533
H 0.3379804 -2.3765686 -0.6877244
H 1.1587476 1.1167401 -0.2107844
H 1.2586074 0.80631584 1.5470545
H -1.4607347 0.2945929 1.0805652
