11

N -0.50334421 0.14290245 0.95817628
C 0.45107821 -0.70704710 -0.93822312
O -1.19647397 -1.98059357 0.37548100
C -0.53073032 -0.98696170 0.19331925
C 0.26218901 1.20137453 0.33953611
O 1.04623404 0.53640969 -0.62879693
H -0.09605177 -0.67461564 -1.89070912
H 1.22073041 -1.48156765 -1.00188316
H -0.39454831 1.95053926 -0.12992470
H 0.93266852 1.69975498 1.04645389
H -1.19175155 0.29980465 1.67657016
