11

N 0.52698016 -1.138257 -0.16929002
C -1.0582811 0.5357026 -0.36541274
O -0.84259516 -0.7149556 1.8322095
C 1.0323396 0.07686802 -0.5393379
C -0.4024619 -0.24776924 0.80112386
O 0.119674586 0.86090803 -1.1163337
H -1.6965617 -0.16071747 -0.9125023
H -1.5727967 1.4614621 -0.10794686
H 0.6395052 0.6668746 0.91932076
H 1.1795737 -1.6484329 0.42138413
H 2.0746233 0.30831656 -0.76321477
