10

C -0.99126595 0.3830057 -1.3127536
O -0.5402543 -0.3944849 -0.1928575
C 0.5221286 0.095462725 0.43339726
O 1.1133548 1.1059085 0.14669538
C 0.96493155 -0.76414824 1.615998
O 0.4074021 -1.7711152 1.9517155
H -1.8520851 -0.15458272 -1.7056432
H -1.2754059 1.3871609 -0.9904364
H -0.2026202 0.45701176 -2.0680172
H 1.8538145 -0.34421837 2.1219015
