10

C -0.70875507 0.27930701 -1.02414389
O 1.02844595 0.23228154 0.74079933
C 0.14335345 1.00631182 -0.02724847
O 0.19932205 2.18741798 0.13378992
C 0.74576069 -1.01197405 1.18630981
O -0.30585791 -1.57832909 1.11574706
H -1.50910241 -0.25560497 -0.50723869
H -1.12522744 1.01722503 -1.70639262
H -0.11772675 -0.45879379 -1.57342692
H 1.64978754 -1.41784130 1.66180421
