11

C 0.16193094 1.08025817 -1.57445449
N 1.25421614 0.27936546 -1.53555631
C 1.05296701 -0.41397565 -0.43108144
N -0.09747477 -0.04227689 0.15141950
C -0.72793155 -0.52287863 1.36381516
N -0.68682465 0.92527607 -0.57857221
H -0.01270451 1.80302815 -2.36160518
H -0.85992126 0.30850241 2.05884958
H 1.70323418 -1.17866215 -0.02814219
H -0.08704285 -1.28366287 1.81407383
H -1.70044857 -0.95497372 1.12125388
