9

N 1.6465924 0.38233972 0.54446435
C 1.4206349 0.18480852 1.7650621
O -1.388131 -1.3918313 -0.6435622
C 0.6058052 -0.6419655 0.34228605
C 1.2015662 -1.5025088 1.1693859
C -0.66412425 -0.44683856 -0.4167228
N -0.88675773 0.8312317 -0.7940508
H -0.20841831 1.5598505 -0.64796555
H -1.7271674 1.0249138 -1.3188971
