9

N -0.29337434 -1.64652649 0.59730529
C -1.39350375 -1.79607498 0.00799657
O 0.77936914 1.26253017 -1.44113694
C 0.39855491 0.66955513 -0.45522909
C 0.02698880 -0.77286277 -0.54610819
C -0.31921138 -1.70372392 -1.43672767
N 0.26636140 1.19303325 0.78327856
H 0.51108365 2.16431629 0.90971066
H 0.02373139 0.62975333 1.58091069
