17

C 0.66092265 0.7478627 0.31684875
N 0.34576502 -0.5818865 0.11619489
C -0.6379311 -1.0685848 -0.84071857
O -0.27906156 1.7063502 0.10973981
N 1.8252462 1.1154722 0.68812126
C 1.4742695 -1.4795147 0.2892268
C -1.6761285 1.5609701 0.16985206
H 2.0634422 -1.1448383 1.1403025
H 2.1304452 -1.4984 -0.592033
H -0.67331284 -2.159013 -0.75600815
H -2.0564008 2.5590458 0.38814765
H 1.8303926 2.1257179 0.80548865
H -2.0935636 1.2438991 -0.7877771
H -1.6459982 -0.71009105 -0.6207259
H 1.0951154 -2.4884098 0.47603348
H -0.38406476 -0.8101412 -1.8779838
H -1.9791374 0.8815627 0.97529083
