12

N 0.8857979 0.79831487 0.53573114
C -1.0084996 0.7024941 -0.22812508
C 0.55488837 -0.62180567 0.65278995
O -0.07175846 -0.9009246 -1.7026206
C -0.5513318 -0.7393095 -0.4073994
N -1.4482024 1.8037847 -0.36359707
H -0.26410896 1.809585 0.02458286
H 0.14247517 -0.91515404 1.6307266
H 0.71060425 -0.33075833 -1.7735564
H -1.3519086 -1.4639953 -0.24541262
H 1.0291233 1.16955 1.4766939
H 1.372921 -1.311781 0.40018657
