12

N -1.038945 -0.17019214 -0.70584226
C 0.092338495 0.63288784 -0.61387193
C 0.83526325 -0.42783996 0.19190517
O 1.5037463 0.0016248741 1.3368859
C -0.55449957 -1.1069036 0.3202897
N 0.41498908 1.8283678 -0.87812734
H -0.9838643 -0.9418543 1.3157841
H -1.9878664 0.16353105 -0.80774957
H -0.33817136 2.3240561 -1.3569493
H 1.529669 -1.0132735 -0.4175026
H 1.155307 0.87054116 1.5764148
H -0.6279667 -2.160945 0.03876317
