11

C -0.41150403 0.91671085 -1.1535398
C -0.07396721 -0.33271813 -0.3788709
O -0.057167113 -1.4369386 -0.8800741
C 0.2782669 -0.18511958 1.0929286
O 0.655994 -1.4019395 1.6525995
H 0.5170324 1.3376936 -1.5575142
H -0.8702411 1.6806484 -0.51610935
H -1.0683656 0.6782833 -1.9919109
H -0.6017274 0.23739141 1.6059606
H 1.0832349 0.5614772 1.1847682
H 0.5484441 -2.055489 0.9417625
