11

C -0.24202792 -0.24095018 0.37795097
C -0.056921706 -1.4397494 -0.5172986
O 0.10877712 2.095519 0.84568024
C 0.25318035 1.1055144 -0.12110893
O -0.75314164 -0.3090197 1.4750097
H -0.75347245 -2.2296708 -0.23521319
H -0.33297524 1.6672591 1.5976541
H -0.18051256 -1.176381 -1.5737004
H 0.96527624 -1.8163599 -0.38747233
H -0.3147669 1.3474832 -1.0353527
H 1.3065847 0.9963548 -0.4261488
