10

O -0.12554166 -1.1825508 -1.0846958
C -0.064810336 -0.47887373 0.116015084
C -1.310803 0.37369046 0.33391
O -1.4783118 1.0092797 1.3435378
C 1.1413645 0.44370925 0.14553027
O 1.9271504 0.4510178 -0.77115595
H 0.6736103 -0.93315685 -1.5797852
H 0.023752825 -1.156261 0.98101056
H -2.0221887 0.3781027 -0.5164392
H 1.2357774 1.0950425 1.0320723
