10

O -0.65776587 -0.40031067 -1.3818499
C -0.107626066 0.77071154 -0.79316306
C 0.90451175 -0.50769806 0.740128
O -0.4850653 -0.63846743 0.9644039
C -1.1063161 0.005156894 -0.09545144
O 1.1038704 0.5761818 -0.14744793
H 1.3042405 -1.4284883 0.30026412
H -0.18438557 1.7098061 -1.3301625
H 1.3930533 -0.27685374 1.6914109
H -2.1645164 0.18996179 0.051867813
