9

O -1.1416496 -2.2985532 -0.13434817
C -0.6575626 -1.2054275 -0.14503998
N -1.0751228 0.0054071937 -0.5971066
C 1.041562 0.23184356 0.3105921
C 0.001460432 0.95333487 -0.25304374
O 0.7012699 -1.0218099 0.42845592
H 0.04204326 1.9205402 -0.73668915
H 2.0251877 0.5367819 0.6458146
H -0.93718797 0.87788296 0.48136497
