9

O 1.25928084 -0.03548445 -1.17239323
C 0.71707912 -0.87366471 -0.50370369
N -0.74019487 0.81624585 0.55505316
C -0.38899784 -0.56310015 0.48570428
C -0.36891705 1.81943076 -0.02163647
O -0.13323095 2.87392508 -0.46764800
H 0.99306771 -1.94451333 -0.56643411
H -1.26545581 -1.16748218 0.21715762
H -0.07263128 -0.92535711 1.47390020
