9

N 1.2681025 -0.15728857 -1.5616449
C 0.21929061 -0.023143845 -0.8625154
N 0.29434675 -0.03723843 0.5235403
C -0.785844 0.09350517 1.3648313
O -0.71076703 0.08198968 2.5686274
H 1.0460299 -0.121852346 -2.5519788
H -0.801357 0.11069729 -1.2361329
H 1.209762 -0.1572415 0.93818253
H -1.7395636 0.21057254 0.81709003
