9

N 0.2809704 0.025956646 1.1564099
C -0.48461556 0.77305216 0.17515008
N 0.30288035 -1.1252004 0.24074626
C -0.46205136 -0.35614336 -0.72433746
O 0.24240722 0.84424156 -1.0495081
H 1.2432734 -1.3384615 -0.08838887
H -1.1398207 -0.7923358 -1.4436992
H -1.1920412 1.5498731 0.42678973
H 1.2089975 0.41901764 1.3068379
