11

N 1.5937568 1.5925545 1.8194394
C -0.37674662 0.49882695 0.4557355
C 0.7288755 1.1072136 1.2233713
C -0.019700464 0.15511769 -0.99552935
C 0.23648839 -1.296897 -0.63967
O -0.6878962 -0.83295417 0.94197726
H 0.23891275 -1.3577974 0.7898082
H -1.271009 1.1117771 0.5834351
H -0.88066417 0.34415156 -1.6468136
H 0.85632837 0.6846033 -1.3812935
H -0.41834527 -2.0065956 -1.1504602
