11

N 1.4723041 0.36914113 1.3585997
C 0.43707088 0.1997591 0.43948445
N -0.2771998 1.2325802 0.024038551
N -1.21237 0.68492514 -0.77894306
C -1.0986655 -0.6514965 -0.89184016
C -0.028424034 -1.0223823 -0.10710182
H 2.284803 -0.19599678 1.1531731
H 1.7283529 1.3423593 1.4505914
H -1.8881745 1.2898998 -1.2139236
H -1.7746793 -1.2337879 -1.5011709
H 0.35698202 -2.015001 0.06709253
