11

N 0.81604148 -1.60090669 -0.05054070
C 0.90368316 0.56647731 0.12140032
N -1.59077452 0.88661386 -0.23052532
N -0.56047469 -1.20731367 -0.18218477
C -0.50594899 0.07179712 -0.08399286
C 1.74664983 -0.70250290 0.13381127
H -1.54032458 1.79439185 0.20158313
H 1.02775395 1.12516829 1.05628208
H 1.22899976 1.22587320 -0.69013004
H -2.49319572 0.43831741 -0.16693938
H 0.96759008 -2.59791558 -0.10876353
