9

N 0.9746129 -0.8791859 -0.117184155
C -0.6927953 0.0006753998 0.6476984
N -0.4884474 1.085082 -0.26426545
C -0.22543187 -0.27406967 -0.7139504
O 0.5264881 -0.4767587 1.2064364
H 1.8130945 -0.32329184 -0.30811775
H -1.5946537 -0.11745163 1.2328134
H -0.6567644 -0.65404683 -1.6291627
H 0.34389716 1.6390473 -0.054267798
