9

N 0.75928461 -1.02206320 0.33977048
C -0.21386789 -0.46479995 -0.61145763
N -0.20608585 0.98903891 -0.68201956
C -0.73206019 0.35391628 0.48817019
O 0.29190781 -0.10309026 1.36533497
H 0.70607858 1.42373922 -0.53113646
H -0.63254505 -1.06156417 -1.40934600
H 1.71504767 -0.72899867 0.11806035
H -1.68775971 0.61382183 0.92262349
