10

O -0.64616567 -2.0076492 -0.053742383
C 0.04375462 -0.8764083 -0.12997362
C -0.7435926 1.3465883 0.2853542
N 0.9583142 0.860715 -0.47307375
N 0.4397961 1.7794347 0.5270743
C 1.2924011 -0.4425114 0.084011845
N -0.43104577 0.36167347 -0.69692177
H 2.2571084 -0.79071355 0.41249466
H -1.4527298 -1.9094025 -0.57870597
H -1.7178407 1.6782736 0.62348247
