10

O -1.25561468 -1.27240178 1.12049055
C -0.32643740 -0.75840423 0.32428500
C 0.95043850 -0.98475790 -0.00967052
N 1.21616618 1.35676890 -0.56367879
N -0.53973204 0.27324901 -0.66055462
C -0.01878972 1.54115682 -0.26858818
N 0.88035719 0.02944297 -1.05218799
H 1.77175111 -1.64483305 0.21293284
H -0.55754422 2.41663000 0.07316542
H -2.12059487 -0.95685067 0.82380612
