9

N -0.69310224 -1.7300184 0.7202017
C -0.04022312 -0.75686824 0.26761302
O -0.46156374 -0.00977914 -0.81567776
C -0.31068584 1.3520994 -0.78432024
O 0.066736884 1.9778556 0.15830755
C 1.283932 -0.46554276 0.787677
N 2.3505802 -0.28582054 1.1923306
H -1.584813 -1.827853 0.23681875
H -0.61086076 1.7459271 -1.7629507
