12

N -0.93725742 1.87567818 2.26065255
C -0.40680789 1.12510462 1.55724070
C 0.25607511 0.17427918 0.66621515
C 0.46524992 -0.76017995 -1.47527743
N 0.18622277 0.59742044 -0.76615100
C -0.33067722 -1.21310828 0.54996271
N -0.12672935 -1.65640464 -0.64354196
H -0.75456775 0.96957373 -0.96292718
H 0.07971589 -0.72753380 -2.49432281
H 0.87509624 1.31674419 -0.98723798
H 1.33110374 0.11564342 0.90134906
H -0.63742417 -1.81721678 1.39403834
