12

C 0.54906697 0.76641797 0.79131240
C -0.08848302 -0.15502757 -1.26494483
N -0.63806577 -0.04989514 1.00721349
N 0.55602367 0.88221586 -0.65304395
C -0.77271671 -0.92885552 -0.14337156
O -0.09218237 -0.41417886 -2.44637254
H 1.48584600 0.29925254 1.14896496
H 1.23250117 1.43096853 -1.15915003
H -0.59354494 -0.55133326 1.88388646
H 0.43634091 1.74111878 1.27674063
H -1.81878965 -1.12428065 -0.39511454
H -0.25599630 -1.89640270 -0.04612028
