12

C -0.22564054 0.7607165 -0.8654821
C 0.2818977 0.016135661 1.1773728
N -0.33590013 1.1706731 0.523201
N -0.72091264 -0.8380969 -0.7330857
C 0.40766358 -0.9094899 -0.01559007
O -0.4960112 1.3392191 -1.891446
H 1.0455545 0.36406505 -0.76759607
H 1.2459698 0.26057327 1.6301686
H -1.3214788 1.269825 0.75632066
H -0.37548497 -0.4392644 1.9247843
H -0.6460609 -1.2803371 -1.6485693
H 1.1404035 -1.7140194 -0.09007814
