11

N 0.7374132 1.7357349 2.343812
C 0.25079563 1.3233668 1.3806164
C -0.34659067 0.78157187 0.14541729
C 0.5794051 -0.11714533 -0.70017886
C -0.40070748 -1.2327651 -0.31371623
O -1.24212 -0.3019035 0.39744678
H -0.83770096 1.601429 -0.39082372
H 0.5951957 0.14366908 -1.7585746
H 1.5984291 -0.22039855 -0.3246455
H -0.9351533 -1.7138486 -1.1374509
H 0.0010337257 -1.9997106 0.3580972
