11

N -0.04590376 1.2895504 -0.9764158
C 0.9235364 -0.26747835 0.7107817
C -0.11626035 2.358201 -1.462473
C 0.005871818 -0.011877389 -0.43180755
C -0.5669781 -0.20511536 0.94240403
O -0.08867079 -1.0097861 -1.3805803
H -0.9820707 -0.9954714 -1.7510011
H 1.4001977 -1.2422378 0.71991616
H -1.0938663 -1.1391482 1.1169071
H 1.5338943 0.5583316 1.0620985
H -0.96975034 0.665032 1.4501702
