11

N 0.89877367 -1.4639586 1.1108919
C 1.1176229 -1.7015507 -0.04539011
C 0.45639563 0.8340745 -0.71048254
C -0.19901232 0.8350764 0.6386056
C -0.07402599 -0.43934304 -0.15864198
O -1.1751124 -0.99010366 -0.7245096
H 1.534034 0.9369268 -0.75632596
H 0.42020708 0.9698934 1.5165092
H -0.09424875 1.2313567 -1.5578431
H -1.6736379 -1.4385201 -0.025130792
H -1.2109959 1.2261485 0.71231735
