11

N -1.36593182 2.16179212 1.49750066
C -0.29970620 -0.14214286 0.79376074
C -0.87786094 1.15729107 1.20385219
C 0.65669201 -0.12838773 -1.51917772
C -0.38703271 -0.26510468 -0.71311035
O 1.01083306 -0.20470890 1.29965402
H 1.37921636 -1.05081327 1.00988073
H 0.55051395 -0.22758473 -2.59509948
H 1.64477891 0.09800129 -1.12907763
H -1.37966809 -0.48187804 -1.10319747
H -0.93183447 -0.91646429 1.25501417
