11

N -0.5524873 -1.6201165 -0.7979287
C -0.08763612 -0.49766687 -0.27892944
O -0.08399783 0.724752 -0.94395286
C 1.0931176 -0.8720347 0.4327305
C -0.525611 1.418096 0.23395948
O -0.6872379 0.30465537 1.0536835
H 1.0443107 -1.74037 1.0792391
H -1.0146595 -1.4343402 -1.69003
H -1.4639006 1.9472413 0.030979933
H 2.0378442 -0.3526306 0.2919749
H 0.2402582 2.1224146 0.58827347
