11

C 1.51434546 0.80154292 1.42046807
N -0.22439801 0.17340584 0.03610107
C -1.12756596 -0.43309649 -0.91778400
C 1.12676421 -0.21279440 0.37267152
N -0.57980227 1.19152209 0.72282270
N 0.39678268 1.58961057 1.53929131
H 1.16812716 -1.22822046 0.78046647
H -2.06229366 0.12875861 -0.89960547
H -1.31312240 -1.47387728 -0.64143802
H -0.69132536 -0.39616586 -1.91954810
H 1.79248806 -0.14068588 -0.49344564
