9

O 1.84686 -0.23617205 -0.3121309
C 0.5499025 -0.08263424 -0.022481473
N -1.614483 -0.48534253 0.1863083
N -1.4045564 0.75793934 0.5509174
N 0.010663814 1.0522071 0.41413215
C -0.44588485 -1.0546775 -0.10573715
H 2.3073392 0.5868995 -0.09874686
H -0.9001147 1.5611999 -0.24443915
H -0.3497267 -2.0994196 -0.36782223
