9

C -0.40623367 -0.63628024 0.021181306
C -1.1530472 -1.8425809 0.100583695
C 0.23322713 0.38649005 0.10027331
C 1.010826 1.6154158 0.16956379
O -1.539145 -2.4292107 -1.002832
H -1.803555 -2.8994148 0.043008935
H 0.7164742 2.2082567 1.0390263
H 0.8669949 2.2181408 -0.7314486
H 2.0744588 1.3791828 0.26064345
