9

C 0.7773703 0.11996896 -1.6540878
C 0.15166901 0.023414431 -0.33357257
C -0.35094973 -0.04435994 0.76019686
C -0.9745072 -0.15103972 2.0649118
O -0.65784675 0.5162544 3.0226843
H 0.8165174 1.1613111 -1.9818486
H 0.22030592 -0.45824498 -2.3976743
H 1.8004459 -0.26378107 -1.6139076
H -1.7830046 -0.9035233 2.1332982
