10

N 0.33401373 0.55579417 0.88510235
C 1.25992791 -0.39104084 0.92421872
C -0.57766398 0.39596569 -0.20952092
N -2.48899309 2.11067228 -0.52776211
C -1.64896179 1.33172434 -0.41079782
C 0.85899479 -1.20454056 -0.28218203
N -0.32243111 -0.61286508 -0.92375301
H 0.26580064 1.31332610 1.55096265
H 1.67963140 -1.25826221 -1.00841114
H 0.63968144 -2.24077411 0.00214351
