10

N 0.6063696 -0.17537226 3.3046956
C 0.35310978 -0.026177598 2.1855404
C 0.042682227 0.13745622 0.79755944
N -0.6543065 1.1226737 0.28410733
C -0.70218766 0.86282355 -1.0550319
C -0.0253729 -0.29322347 -1.3508569
N 0.4510032 -0.7519043 -0.15321748
H -1.2209566 1.5234159 -1.7346556
H 0.15348904 -0.81482816 -2.2768636
H 0.99616975 -1.5848638 -0.0012770965
