10

C -1.03650077 -0.00290716 -0.82471779
C 0.01929067 0.97665728 -0.92424391
N -0.74051191 -1.23160792 -0.40061762
N 0.19237482 -1.52049176 0.37258794
C 0.77207457 -0.31594999 1.05648038
C 0.66826468 0.89198336 0.24815124
H -2.05725676 0.18837592 -1.13932904
H 0.06195865 1.76274448 -1.67029462
H 0.29893015 -0.17756029 2.03942083
H 1.82137586 -0.57124429 1.24256291
