10

C -0.22097632 0.9756637 -0.36932027
C -0.6283412 -0.038310535 -1.2365366
N -0.45734876 -1.3332422 -0.98875695
N 0.12870793 -1.7126864 0.13915884
C 0.5380827 -0.790593 1.005349
C 0.39042175 0.5818447 0.8036476
H -0.38436744 2.0190282 -0.6179546
H -1.1179255 0.18695766 -2.181045
H 1.0079385 -1.1829435 1.9036775
H 0.7438083 1.294281 1.5417808
