10

C -0.6439823 0.283912 -1.1459229
C -0.9446526 -0.611986 -0.19208252
N 0.6080442 0.48586228 1.37184
N 1.1355922 0.91078585 0.32651162
C -0.32212257 -0.66660196 1.1242567
C 0.7426185 0.6102284 -0.911395
H -1.1862156 0.51670206 -2.0559433
H -1.0772218 -0.59853196 1.9154752
H 1.4782983 0.68723536 -1.7053455
H 0.20964164 -1.617606 1.2726057
