10

C -1.3010046 0.05415517 -0.40433064
C 0.8833576 0.791332 -0.105563164
N -0.96703213 -1.2233427 -0.046171926
N 0.18837287 -1.5676757 0.31840733
C -0.4878392 1.1157085 -0.03979787
C 1.1908715 -0.56512076 0.103106484
H 2.1658435 -0.9776834 -0.15559834
H -2.282932 0.15172578 -0.85715127
H 1.4609731 0.09205017 1.0847042
H -0.85061085 2.1288512 0.102395244
