12

O -1.5391837 0.5217325 0.81550974
C -0.70272017 0.42941818 -0.2944986
C 0.10427629 -0.8807333 -0.42428118
O 0.024830217 -1.655117 0.74152863
C 0.68191594 1.0914032 -0.22293882
O 1.3258585 -0.16590126 -0.52863544
H -1.2669688 0.69138414 -1.1929
H -0.07787604 -1.5349406 -1.283599
H 0.88702035 -1.5935072 1.1769747
H 0.9365389 1.454225 0.78054565
H -1.293096 -0.2090734 1.4054935
H 0.9194048 1.85111 -0.973199
