10

O 0.9549275 2.0919268 -1.1638751
C 0.67159706 1.1144035 -0.5501709
O 1.1290861 0.7553691 0.7067285
C 0.4998858 -0.537094 0.56696355
C -0.96590066 -0.36851758 0.5068982
C -0.122086875 -0.1483765 -0.7435019
H 1.0764573 -1.4059656 0.8508714
H -1.5559114 -1.2798702 0.47885293
H -1.4310427 0.47419503 1.0137924
H -0.25701225 -0.69607073 -1.6665593
