10

O 0.81557250 2.32211694 -0.26501630
C 0.57812881 1.17863344 -0.05850488
O 1.54351395 0.34666018 0.60859710
C 1.19157026 -0.90661993 0.78872150
C -0.61653193 0.30918923 -0.36510353
C -0.20339766 -1.04756130 0.19357058
H -0.78813193 0.32046704 -1.44474479
H -0.86012272 -1.42323209 0.98739092
H -1.49817836 0.74377908 0.11390322
H -0.16242305 -1.84343277 -0.55881404
