10

O 1.3340719 1.9847794 0.6391574
C -0.56423265 0.539058 -0.00825898
O 1.6539612 -0.24322754 0.27973503
C -0.4336295 -0.9573124 -0.26784933
C 1.0237571 -1.3463343 -0.056447174
C 0.8452929 0.94452065 0.3466889
H -0.88696355 1.1219466 -0.87502575
H -0.71113616 -1.2571251 -1.2848426
H -1.223039 0.7954609 0.82591605
H -1.0380826 -1.5817661 0.4009265
