12

N 0.8333419 -2.0613 -1.4466128
C 1.1985253 -1.1968026 -0.7674605
C -0.23921353 0.12548037 1.467448
C -1.3610048 0.5554131 -0.59396785
N 1.102692 0.30838326 1.1112661
C 1.6634283 -0.106442355 0.04904844
N -1.3230652 0.31625304 0.82268107
H -2.326384 1.0003252 -0.85882014
H -0.5574429 1.2311248 -0.91930485
H -1.258868 -0.38826483 -1.1423974
H -0.35368752 -0.09650408 2.5285459
H 2.621678 0.3123342 -0.25042564
