10

O -0.02653859 -1.6681033 -1.0726153
C 0.8564278 -0.9083326 -0.77419317
C 0.75540847 0.099724345 0.35054824
O -0.49536136 0.011331977 1.011819
C -1.5128478 0.6331068 0.3878828
O -1.4106978 1.2919811 -0.6094503
H 1.5196481 -0.12087835 1.1014962
H 1.831598 -0.90240544 -1.3042783
H 0.9209801 1.1089668 -0.04307831
H -2.438617 0.45460856 0.9518689
