10

O 0.54561497 -1.74728362 -0.76359714
C 1.16679635 -0.85851308 -0.24383031
C -1.58449585 0.46919406 -0.33047787
O -1.13708266 1.04385268 -1.28379429
C 0.53624398 0.22522846 0.60430584
O -0.86414144 0.03913789 0.72181495
H -2.64243705 0.22640996 -0.16075206
H 0.94262681 0.17090350 1.61848156
H 2.26953332 -0.77695516 -0.34027605
H 0.76734156 1.20802560 0.17812532
