10

N 1.293541 0.9206128 1.0408642
C -0.24317783 -0.18506119 -0.1657637
N 0.46451476 -0.11908431 0.9802692
N -1.0773886 -1.258308 -0.4629112
N 1.0130548 1.5995477 -0.059441328
C 0.052274574 0.9714723 -0.9016629
H 0.4411863 -0.74417603 1.7743014
H -1.5661333 -1.0705801 -1.3297797
H 1.3619877 1.3756502 -1.1416146
H -1.7398593 -1.4900733 0.26573864
