10

N 1.3064897 0.91510564 0.85650945
C 0.0040506767 0.39918584 -1.2633481
N -0.5713626 -0.55922836 0.68763894
N -1.4592679 -1.0385338 -0.15607543
N -1.075075 -0.43436304 -1.2766347
C 0.32078183 0.28496605 0.09430182
H 1.7474778 1.6290839 0.29076958
H -0.6545118 -0.8171758 1.6604857
H 2.0156806 0.2745958 1.1940541
H -1.6342636 -0.6536362 -2.0877016
