10

N 0.16693565 0.47821128 -1.3146614
C 1.1762086 0.3106992 -0.5375312
C 0.8251057 -0.19507363 0.7986366
C -0.5082204 -0.33729473 0.80719244
C -1.0066451 0.08630487 -0.5434805
H 2.1886637 0.53366756 -0.86648893
H 1.5286486 -0.40166977 1.5959098
H -1.1316948 -0.6883243 1.6209446
H -1.7028574 0.9327247 -0.491534
H -1.536145 -0.7192451 -1.0689877
