10

N -0.057010867 0.45939574 1.2509676
C -0.53078586 -0.2008422 -0.92614603
C -1.0991719 0.09728169 0.32223272
C 1.087325 0.29693368 0.55426896
C 0.8469161 -0.05882414 -0.7748838
H -1.0719885 -0.48324472 -1.8197988
H -2.124582 0.33861634 0.5731102
H -0.6905385 -0.6342226 1.3004869
H 1.5999144 -0.22748004 -1.535074
H 2.039922 0.41238624 1.0548366
