11

O -1.2745875 1.0515038 -0.12042454
C 0.53672385 -0.9499662 0.71806604
C 0.64622045 0.27470154 -0.096897684
C -0.38652924 0.5713854 -1.1047276
O -0.40904057 -0.35776788 1.5673447
H 1.4511021 -1.217348 1.2568179
H 1.2476475 1.0991873 0.2824749
H -1.1180617 0.31088585 0.8045963
H -0.1130216 1.3558203 -1.81573
H 0.16423956 -1.8130279 0.1433382
H -0.74469304 -0.3253743 -1.6348581
