11

O -0.99226579 -0.88851489 -1.13510562
C -0.00698515 -0.07144753 1.41841145
C 0.52047842 0.45954958 0.16732368
C -0.24181020 0.30097654 -1.12981400
O 1.01253906 -0.76799444 0.69705662
H -0.93932516 1.13528673 -1.25438709
H 1.23661726 1.28090417 0.20422208
H -0.97753274 -0.56208217 1.41615745
H 0.31800981 0.35525784 2.36619488
H 0.47396867 0.33044834 -1.96663086
H -0.40369412 -1.57238445 -0.78342853
