10

N 1.25939570 -0.41965413 0.47890188
C -0.26220286 1.80741996 0.57760043
O -0.99241375 2.73593951 0.73707410
N -0.45219142 -1.34365138 -0.91924065
C 0.13446328 -0.41260872 -0.09695968
O -0.72873935 0.64800353 0.02860232
H 0.80721492 1.77409372 0.82584580
H 1.79369483 -1.25580420 0.27496578
H -0.11273971 -2.28950317 -0.84430739
H -1.44648152 -1.24423537 -1.06248258
