10

N -1.4169438 -1.0923104 -1.4209903
C 0.6051349 -0.1957389 -0.4177243
C -0.4018574 -0.45741096 -1.3730191
C 0.7661082 0.80373096 0.7365687
C -0.49145862 0.013360001 0.65420234
H 1.5871459 0.49720442 1.3789909
H -1.2410764 0.72835135 0.3061394
H -1.3915572 -1.1049404 -0.085901044
H 0.73261046 1.8749903 0.5503477
H 1.2518939 -1.0672362 -0.32861435
