10

C 0.38534805 2.0532808 1.4993037
C 0.18235658 1.0920243 0.80489296
C -0.058349088 -0.043671437 -0.018905524
C -1.2051791 -0.7235626 -0.3718565
N -0.8690587 -1.7413328 -1.2008673
N 0.41573465 -1.736199 -1.3830153
N 0.91479915 -0.72326916 -0.67905504
H 0.5542665 2.9093459 2.118046
H -2.2271607 -0.53737545 -0.08121349
H 1.9072424 -0.54924047 -0.6873298
