10

C 1.9026629 -1.6400603 0.24112512
C -0.01986854 0.16949125 0.097776726
C 1.0231663 -0.82600677 0.1685239
C -1.1431711 -0.07431304 -0.775413
N -1.9443247 0.97524184 -0.6817069
N -1.9094661 1.9745566 -0.07102227
N -0.026015477 1.2771024 0.7571211
H -1.3435274 -0.9238292 -1.4076294
H 2.685544 -2.3639877 0.30727586
H 0.7750003 1.4318053 1.3639488
