14

C -1.03495275 0.56931210 1.24511323
N -0.61955287 -0.19550395 -1.85987450
C 1.00745839 -0.48084315 0.26764629
O 1.06907369 0.64917884 -0.54354011
N 0.09313354 -0.34916524 1.27308218
C 0.30526583 0.64169749 -1.65153661
N 1.85788156 -1.38915409 0.03859274
H -1.52112820 0.54180702 2.22435973
H -0.04666490 -1.19256436 1.80980908
H -1.76085966 0.30835351 0.46813289
H -1.05879944 -0.01833867 -2.76169693
H 0.60609849 1.47687712 -2.29456533
H 1.78027438 -2.14883527 0.71029961
H -0.67722810 1.58717870 1.07417753
