14

C -2.3932948 -0.07595922 0.9729682
N -1.3503151 0.13546836 -0.012040925
C -0.033237066 0.0356819 0.34470743
O 0.3561718 -0.075665474 1.4918742
N 0.8424451 0.10033834 -0.73542744
C 2.2154408 0.0016664155 -0.5914018
N 2.961518 0.11201607 -1.6149348
H -2.0391014 0.2976342 1.9339647
H -2.6506743 -1.1367675 1.083883
H -3.286602 0.47939512 0.67725104
H -1.5963502 -0.021654924 -0.977162
H 0.5176523 0.30499277 -1.6713289
H 2.5224102 -0.1691401 0.4405314
H 3.9339366 0.011994092 -1.3428843
