14

C -1.2566272 -0.7929454 1.3791939
N -1.2159564 -2.0423799 1.5819261
C 0.19059096 0.22342373 0.21009962
O -0.91841847 -0.32134333 -0.16957183
N 0.2510513 0.17081283 1.5150634
C 0.77463436 0.7453075 -2.109859
N 1.0472616 0.7355523 -0.6805417
H -1.9921707 -0.056910757 1.7011405
H -1.9379748 -2.303335 2.2461386
H 1.8324996 1.2499222 -0.32026464
H 1.711246 0.60424536 -2.6507933
H 1.1067791 0.18261488 2.0553372
H 0.09679603 -0.079661004 -2.3359709
H 0.3102885 1.6846966 -2.4218981
