14

C 0.12759018 0.19499697 -1.7827599
N 1.2928872 -1.9239172 0.09973752
C 0.83935416 -0.74963874 0.22659081
O 1.0750471 0.12669985 -0.8294627
N 0.25100008 -0.1319013 1.2926444
C -0.51155776 1.1044763 1.2099551
N -1.0345954 -0.28645852 -1.6518942
H 0.528617 0.74539137 -2.6416864
H 1.1281575 -2.4783027 0.9363075
H -1.4319514 0.9840188 0.62934834
H -0.7592 1.4207759 2.2271447
H -0.026489936 -0.7649792 2.0282755
H 0.10082013 1.885248 0.7531978
H -1.579679 -0.12640916 -2.4973981
