11

O -1.94167836 -1.32404533 1.05403986
N -0.98863980 -1.27000388 0.21705113
C -0.19637369 -0.26725457 0.02332990
C 0.97797592 0.04943945 -0.85617479
O 1.06455462 1.34434048 -0.22992911
C -0.06812456 1.08694086 0.63574120
H 0.20721483 1.11784274 1.69652597
H 0.77627445 0.12654676 -1.93201703
H -0.82796204 -2.10649318 -0.36414370
H 1.88562524 -0.54668079 -0.69721288
H -0.88886678 1.78936750 0.45278934
