14

C -1.21877220 -0.73545612 -1.24118208
N -1.17763357 0.65250048 -0.74007318
C -0.25896446 -0.26182473 0.02102744
O 0.22462432 -0.80052284 -1.22956369
N 0.64486508 0.03865626 1.03363878
C 1.70431887 0.95892049 0.64368176
N -1.33217329 -1.28198599 0.14001092
H 0.14523837 0.34396570 1.85990618
H -0.89415328 -2.20636649 0.18768233
H 1.31894598 1.94423822 0.34794590
H -2.02046743 0.82089312 -0.18272027
H -1.77378502 -1.08241298 -2.11364133
H 2.39293025 1.07663315 1.47793005
H 2.24502659 0.53276175 -0.20464288
