14

C -2.3939571 -0.076323576 0.97352153
N -1.3510646 0.1343208 -0.011863016
C -0.03458189 0.037214424 0.34441993
O 0.35668975 -0.07720152 1.4914011
N 0.8437989 0.10679254 -0.7357101
C 2.215918 0.0028326574 -0.59426457
N 2.9652739 0.111712 -1.6153178
H -2.0396893 0.29651764 1.9348669
H -2.6529908 -1.1372745 1.083857
H -3.2877567 0.47999904 0.68153876
H -1.5985608 -0.02365851 -0.9758846
H 0.51992935 0.3036374 -1.6721276
H 2.519435 -0.17164546 0.43982047
H 3.9375565 0.013077069 -1.3442581
