10

O -0.2545244 1.5599874 0.024853274
C -0.91974473 0.30294335 -0.20093141
O 1.8279374 1.4773293 0.9843888
C 0.8666166 0.95878917 0.5192484
C 0.3697994 -0.46752894 0.2747674
C 0.67165655 -1.0616949 -1.017167
H -1.2047102 0.2032737 -1.2508101
H 0.17568795 -2.0513759 -0.9833106
H 0.23426427 -1.0646838 1.1791096
H -1.7669827 0.14296052 0.4698515
