10

O 0.8546379 -2.316187 0.7321284
C 0.60880387 -1.173339 0.51348025
O 1.312868 -0.067288086 0.8612418
C 0.22926879 0.7935391 0.39506614
C -0.53986424 -0.41406533 -0.12617078
C 0.21407726 1.0316703 -1.0279905
H -0.18173517 1.4414278 1.1631169
H -1.6015068 -0.5882035 0.010047568
H -0.70419836 1.6112269 -1.2323895
H -0.19235116 -0.31878152 -1.2885302
