10

O 0.95761406 2.0906565 -1.1663687
C 0.6729037 1.114819 -0.5502368
O 1.1277055 0.7566166 0.70530516
C 0.4993865 -0.5362708 0.56783736
C -0.9661474 -0.36981055 0.5077848
C -0.12201028 -0.1475778 -0.7420906
H 1.0782194 -1.4044265 0.84918064
H -1.5556966 -1.2819647 0.47825146
H -1.4301609 0.4722978 1.0158507
H -0.26181412 -0.6943396 -1.6655139
