9

O -1.02007117 -0.93938005 1.62716261
C 0.73216783 0.45837068 -3.76161505
C 0.10531568 0.27698167 -0.11572158
C 0.31266050 0.33348063 -1.29543022
C -0.16087676 0.13571637 1.32392213
N 0.53897107 0.40093977 -2.59906508
H -0.64141802 -1.75151893 1.26843326
H -0.66489959 1.03286021 1.69516049
H 0.79815058 0.05254960 1.85715337
