12

O 1.2776194 -1.4202634 -0.64225316
C 0.57473576 0.665069 0.89254564
C 0.0028357117 -1.332483 -0.2820413
C -0.4477986 0.9823108 -0.18402033
N -0.89438015 -0.3746712 -0.5361494
H 1.4053482 1.3794571 0.9372607
H 0.09957774 0.6061797 1.8796464
H -1.3464674 1.5653231 0.08270845
H -1.8710287 -0.63419706 -0.58598316
H -0.44560358 -2.3285458 -0.19021481
H 1.6380599 -0.5821931 -0.3177962
H 0.007101646 1.4740138 -1.0537028
