12

O -0.58478343 2.03111 0.92331874
C -0.48270783 -0.3790885 -0.54490775
C 0.9107295 -0.34657723 -1.1691386
C -0.4626074 0.9712551 1.5060647
N -0.45029315 -0.24283804 0.90173143
H -0.2566246 -1.0542556 1.4691223
H -0.9968952 -1.3158102 -0.7844715
H 0.8463815 -0.44921252 -2.2567363
H -0.36757976 0.893535 2.6065934
H 1.5356069 -1.1607935 -0.7844085
H 1.398896 0.6057252 -0.93794423
H -1.0901226 0.44695035 -0.9292237
