11

O -1.0308481 0.30176792 1.1509649
C 0.2531893 -0.71092796 -0.3895315
C -0.9462136 0.14988098 -0.68110615
O 1.2753268 -0.6308181 -1.3222888
C 0.338829 -0.05152174 1.0204809
N -1.5195308 1.1375511 -1.0485277
H -1.490009 1.1959189 0.22956206
H 1.4826891 0.30112213 -1.4730628
H 1.0158219 0.8164499 1.0050185
H -0.030753804 -1.7604799 -0.29617283
H 0.6514993 -0.7489431 1.8046635
