11

O 1.66171000 0.24003303 0.26220677
C 0.34282100 0.52829181 -0.36973292
C -0.79844474 0.83633532 0.56981308
O -2.03886288 0.55706388 -0.03423258
C 0.98449924 -0.75333010 -0.35945568
N 1.03962600 -1.97166632 -0.62251034
H 0.41766766 1.14856990 -1.26113723
H 1.89482609 -2.38684724 -0.24495745
H -0.64694656 0.28018542 1.50702815
H -0.80796108 1.90364216 0.81194631
H -2.04893486 -0.38227783 -0.25896819
