11

C -0.61060456 0.38346844 0.04590364
C 0.74209235 1.03019216 0.18552492
O -0.71088842 -0.28116343 -1.26608035
C 0.24919089 -1.85103171 0.53449776
C -0.91442918 -1.03325796 0.36054945
N 1.09021471 -2.61065158 0.78684381
H 0.79380815 1.95550199 -0.39513375
H -1.64143436 -0.28967594 -1.54000036
H -1.44154869 1.07623448 0.19620485
H 1.52891245 0.34978114 -0.14786069
H 0.91468678 1.27060237 1.23955056
