11

C -0.8215357 0.7483996 -0.8350091
C 0.50083166 0.6255434 -0.12850721
O 0.49163043 0.68370354 1.2902126
C 0.86815155 -0.5439097 0.68911344
C -0.053990327 -1.658394 0.85334355
N -0.7716796 -2.558079 0.96437126
H -1.1552612 1.7908218 -0.83160216
H -0.72414 0.4239003 -1.8765372
H -1.5874257 0.13946794 -0.3474962
H 1.336735 1.1630737 -0.5791691
H 1.916684 -0.81452763 0.80127996
