12

O -0.66418487 -1.4507171 0.88223684
C -0.060104273 -0.22278017 1.1999134
C 0.44491518 0.45341083 -0.07222063
O 1.3257296 -0.42719194 -0.7195452
C -0.7078422 0.7743643 -0.9994653
O -0.7202518 0.3822938 -2.1402078
H -0.03140608 -1.9086378 0.3100307
H 0.78437114 -0.34333175 1.8923056
H -0.81844693 0.39758644 1.691394
H 0.93928283 1.4046807 0.18786182
H 1.0292991 -0.46056196 -1.6452435
H -1.5213617 1.4008845 -0.5870596
