12

O 0.06234851 -2.10757847 0.43708525
C 0.52869849 1.66636495 -1.02506347
C -0.68521041 0.28990116 0.57060948
C -0.82417245 -1.13651943 1.00672343
N 0.18079424 0.39877300 -0.39941650
H 0.28273250 1.64295385 -2.09223694
H -0.05611124 2.44183931 -0.53100937
H 1.59737385 1.87441604 -0.90880562
H 0.62959154 -0.43318077 -0.78994461
H -1.83736729 -1.45826452 0.73214722
H -0.78423017 -1.15109191 2.10527470
H 0.90555244 -2.02761287 0.89463618
