12

O -0.97057027 -1.6464037 0.9920515
C 1.0815705 0.8514011 -1.487404
C -1.0443712 -0.26112938 1.3511214
C -0.27225992 0.7247649 0.528906
N 0.26751584 0.14562106 -0.5083992
H -2.1042097 0.013625586 1.2690979
H -0.13574655 -1.9852414 1.3311659
H 1.1319667 1.8939682 -1.1744081
H -0.7664165 -0.103004165 2.402958
H 0.622816 0.7864096 -2.47999
H 2.08958 0.4260669 -1.5307151
H 0.100125305 -0.84607863 -0.6943842
