11

C -0.26028764 0.23346785 -0.9569427
N 0.41435304 -0.44369626 0.9428265
C -0.59458697 -1.258819 0.9306834
O 0.20416607 2.4729753 -0.28211975
C 0.6278782 1.3775699 -0.5608854
O -1.3463479 -1.2170814 -0.070935845
H 0.21764266 -0.4914491 -1.6081431
H -1.2440077 0.5712705 -1.2645693
H 1.7107373 1.1408856 -0.59715706
H -0.79489714 -1.9662555 1.7439536
H 1.0653502 -0.418868 1.7232897
