11

C -0.7745612 0.87857455 1.543218
N 0.5827919 0.52000725 1.1772498
C 0.83646756 -0.05304087 0.0981352
O -0.14070587 -0.38668588 -0.83924735
C 0.2528023 -1.0277377 -1.9655772
O 1.3787035 -1.3375231 -2.2374265
H -0.791389 1.9534674 1.7495388
H -1.0169301 0.36473957 2.4769583
H -1.5389802 0.6426621 0.7926418
H 1.8408765 -0.3388175 -0.20159797
H -0.6290753 -1.2156457 -2.5938928
