11

O -2.0131223 -1.1904079 0.24551621
C -0.99923545 -0.50732106 -0.41184822
N 0.3604598 -0.98667204 -0.07254099
C 1.0157382 0.082035 0.076261
O 2.3050175 0.27594763 0.32995582
C -1.0476667 1.0247701 -0.2653545
N 0.23040427 1.270864 -0.037986778
H 0.63018847 2.1898544 0.095825605
H -2.062994 -0.8642564 1.1534127
H 2.7268093 -0.5922165 0.37154847
H -1.1455994 -0.70259714 -1.4847894
