11

O 0.33288652 -1.4962384 1.8307205
C 0.74396354 0.14566506 -1.1524764
N 1.0228295 -0.9375789 -0.37926364
C -0.22439824 0.9055173 -0.49233934
O -0.75346327 2.0468686 -0.9425274
C 0.12932535 -0.79258037 0.6957767
N -0.61121804 0.33480442 0.6534523
H -0.08936076 -1.6399662 -0.2618234
H 1.1616606 0.26911795 -2.1404893
H -0.33139998 -1.1953614 2.465294
H -1.3808252 2.359752 -0.27632397
