9

N -0.06963501 0.63112444 1.6626337
C 0.22371449 -0.31180698 0.8099544
C -0.03220167 -0.10442766 -0.6072762
N 0.20811167 -0.90310127 -1.5628321
N -0.318126 1.4407651 2.4028893
O -0.59048647 1.1022112 -0.8587946
H 0.6665145 -1.2063595 1.216557
H 0.621863 -1.7750686 -1.2426455
H -0.7097545 1.1266633 -1.8204862
