9

N -1.11252804 -0.70272709 -1.25291755
C -0.16387395 -0.28003229 -0.52483677
C -0.26324136 0.40559507 0.75464870
N 0.82439521 0.75651475 1.38404337
N 1.75811979 1.05989057 1.93301118
O 1.11913302 -0.45235885 -0.91868629
H -2.02538805 -0.50781041 -0.84951856
H 1.05956637 -0.91509863 -1.76839048
H -1.19618328 0.63602674 1.24264700
