11

N 1.0338277 -0.01813478 -1.5529115
C 0.2791728 -0.026065154 -0.37432995
C -0.37561315 0.96814317 0.31892648
C -0.8738523 0.31751505 1.4708495
N -0.57142615 -0.9657988 1.4960107
N 0.13577367 -1.1557062 0.3602176
H 1.0263293 0.89686877 -1.984206
H 0.7298561 -0.7085258 -2.228477
H -0.47943044 2.0045743 0.032286867
H -1.4526118 0.7435475 2.2795837
H 0.54797417 -2.056418 0.18204957
