10

N -0.6565569 -1.2171346 1.1908916
C -0.17953773 -0.30422485 0.25689992
C -0.7807555 0.73160183 -0.37911004
O 0.1421095 1.2661049 -1.251383
C 1.2328227 0.5158562 -1.0810003
N 1.1190048 -0.4261711 -0.20613909
H -1.3193634 -0.8360063 1.8502584
H 0.10190258 -1.6857536 1.6653991
H -1.7554005 1.191197 -0.36367002
H 2.0957747 0.7645299 -1.6821465
