10

N -0.23639521 -0.5504138 -0.9213492
C -0.9545689 0.5571433 1.0410892
C -0.6173731 -0.9962324 -1.9920577
O -2.137403 0.41867143 0.83970284
C 0.10364995 0.090874605 0.13291508
N 1.4470774 0.2781283 0.4846229
H 2.0878477 -0.019213567 -0.238594
H 1.6533527 1.2311839 0.756027
H -0.5604058 1.0663657 1.9453841
H -0.7857821 -2.0765078 -2.0477402
