9

O 2.1987674 0.01702877 -0.6984502
C 1.0750002 0.21590368 -0.32039878
C 0.014198173 -0.88804215 -0.13820378
O 0.503257 1.3651099 0.022024985
C -1.0107436 0.05430788 0.34669548
N -1.8808534 0.7659781 0.73655045
H -0.29660273 -1.3795339 -1.0664648
H -0.88383985 1.4875543 0.5052681
H 0.2808168 -1.6383066 0.61297846
