9

N 0.68829966 0.5634775 -0.73963875
C 0.2443148 -1.0761384 1.0094804
C 0.08285403 0.30645627 0.5717271
C -1.0456867 0.6546202 -0.33180362
N 0.34516817 -2.17714 1.3483189
H -1.4377264 -0.27700084 -0.7666666
H -0.0831681 1.2766595 -1.148166
H 0.81583685 -0.29021275 -1.2805623
H 0.39010784 1.0192786 1.3373107
