9

N -2.42605872 0.69142065 -0.62373986
C -1.42354375 0.48609358 -0.08851352
C -0.18206809 0.15371832 0.60303675
C 0.51024469 -1.17178115 0.47559105
N 0.97279905 0.08704890 -0.30916974
H 0.76490735 0.25614086 -1.28973862
H -0.01997272 0.74764486 1.50140043
H -0.03373628 -1.76356986 -0.27305315
H 1.83742858 0.51328407 0.00418665
