10

C -0.22300045 0.9756698 -0.36912525
C -0.6296093 -0.039955985 -1.2364773
N -0.45688978 -1.3349301 -0.98907053
N 0.13258809 -1.7116913 0.13892972
C 0.5415824 -0.7901083 1.0044056
C 0.3895649 0.5821416 0.8044046
H -0.38749766 2.0177722 -0.61715275
H -1.1196017 0.18543735 -2.1795523
H 1.0135168 -1.181537 1.901484
H 0.7393467 1.2972015 1.5421542
