10

C -0.43612632 0.68488634 0.69275576
C -0.096347235 0.6025293 -0.78302723
N 1.2195929 -0.6956476 0.9064212
N 0.5691126 0.079325184 1.6145664
C -1.1690503 -0.041188907 -0.33114794
C 1.3739749 -0.8788226 -0.32436723
H -0.88520825 1.5501645 1.1785303
H 0.30373117 1.1183832 -1.6409236
H -2.0913055 -0.55456007 -0.55346304
H 1.211626 -1.8650692 -0.7593448
