11

O -0.2942783 -1.479153 -2.0235493
C -0.37595147 0.7559003 0.7800401
C -1.0860027 0.17860383 -0.40600932
C -0.22589302 -0.7757576 -1.0220425
C 0.84175116 0.060238086 0.8961909
N 0.92282194 -0.77439845 -0.15277551
H -2.0458484 0.51029277 -0.76739866
H 1.6108251 0.14224617 1.6501234
H -0.86278343 1.291222 1.5866456
H 1.7226557 -1.3449006 -0.38804105
H -0.20729654 1.4357065 -0.15318312
