11

O -0.65796588 1.27726040 -2.09121662
C 0.52039377 1.19699022 0.04763639
C -0.32718928 0.69162580 -1.08003254
C 0.64464372 0.24025449 0.96357505
C -0.10533820 -0.99797682 0.54186882
N -0.65999486 -0.59415969 -0.72807993
H 0.93694409 2.19460406 0.05478740
H -1.22986784 -1.17523390 -1.32004623
H 0.56684142 -1.86050362 0.44470157
H -0.88332602 -1.26322405 1.27025981
H 1.19485930 0.29036354 1.89654679
