12

O 1.7342974 -0.41061428 -0.27197275
C -0.43805262 0.40926802 1.4289706
C -0.6898451 -0.047705468 -0.5403748
C 0.5261478 -0.89243484 -0.82091373
N -0.63792306 1.0517704 0.24874276
H 1.7590787 0.5405904 -0.40653107
H -1.561141 -0.1979608 -1.1835836
H 0.3599067 0.71084404 2.100818
H -0.87170976 2.0211306 0.053896695
H 0.40823153 -1.9176005 -0.45085412
H -1.1783854 -0.3059518 1.7657967
H 0.589395 -0.96133596 -1.9239947
