12

O 1.41196534 -0.18970038 -1.23212287
C 0.87669682 0.88642659 -0.45256644
C 0.25163514 0.46605849 0.82421759
C -1.41958769 -0.94508711 -0.22994711
N -0.81575709 -0.34742252 0.79530961
H -0.95035882 -0.88131038 -1.20045347
H 0.53370600 0.86971743 1.78744929
H 0.14818925 1.35635752 -1.12971271
H 1.66172800 1.62602517 -0.23909932
H -2.30735009 -1.52740803 -0.01563481
H -1.23145497 -0.52548980 1.70362566
H 1.84058812 -0.78816723 -0.61106521
