12

O 1.867121 -0.20858228 -0.13458002
C -1.010907 -1.1662843 -0.7610141
C -0.27986297 0.6419817 0.6851289
C 0.9674379 0.9044755 -0.071790144
N -1.1227707 -0.30828086 0.25105423
H -0.61528975 1.2534444 1.5121247
H 1.4740723 1.7763089 0.366475
H -1.8516581 -1.8208709 -0.9554452
H 1.8599854 -0.61340886 0.7392948
H -0.06506363 -1.2162097 -1.2796793
H -1.987754 -0.3732327 0.7774912
H 0.7646896 1.1306591 -1.12906
