11

O 0.55456499 -0.40092432 -1.70241382
C -0.79614391 0.67001575 1.11781158
C 0.08892850 -0.05217751 -0.48243730
N -1.04660777 0.75432800 -0.36379789
C 0.34470338 -0.28107397 0.80864702
O 1.69717724 -1.23905422 -1.50124676
H -1.66091354 0.26425505 1.64857193
H 0.97490607 -0.93077056 1.39053848
H 1.31594498 -2.10648680 -1.70382687
H -0.96723661 1.68793520 -0.75978465
H -0.50532313 1.63395340 1.54793809
