11

O 0.50322914 -0.7613934 -1.5917085
C 0.051497955 -0.21739952 -0.43984306
C 0.51824373 0.4245398 0.6347617
N -1.2977064 -0.3234221 -0.090020426
C -0.9201051 0.5008594 1.1112225
O 1.9113321 -0.5139672 -1.6589319
H -1.1700218 -0.010986824 2.0438156
H -1.3724681 1.4977505 1.0928597
H -1.9542317 0.12198178 -0.72666603
H 2.2543383 -1.3915404 -1.433038
H 1.475892 0.6735782 1.0575482
