12

C 0.104747996 -0.25764373 1.6733364
N 0.15308996 0.6712892 -1.5762423
C 0.09835249 -0.8884548 -1.1003481
N -0.3859397 0.0011035674 0.3414454
C -0.25846016 1.0794988 -0.38056353
O 1.1093959 -1.5475805 -1.0566666
H 0.14099815 0.66764694 2.2634315
H -0.54938275 -0.9806154 2.166823
H -0.8934401 -1.2490371 -1.4315251
H 1.1134163 -0.6845515 1.6158435
H -0.18285926 1.0798008 -2.4426327
H -0.44991875 2.1085434 -0.07290116
