11

N -1.8680588 -0.52203745 1.8671585
C 0.4982088 0.8927125 -0.0870753
O 0.102156356 0.81135297 1.3088081
C 0.56516147 -0.4713905 -0.75953454
C -0.941245 0.11610394 1.5866709
O -0.6964357 -0.96539 -1.1246823
H -1.1747619 -1.2517664 -0.33377185
H 1.4755777 1.3707696 -0.0485543
H -0.22111495 1.5314658 -0.60532695
H 1.134315 -0.34504673 -1.6876625
H 1.1261972 -1.1667738 -0.116029695
