12

N -0.9247103 2.0761268 1.7923763
C -0.8554145 1.2736101 0.96525335
C -0.7619938 0.222191 -0.068035066
C 0.39601874 0.47455025 -1.0862043
N 1.4854434 -0.4140621 -0.68358487
C 1.005938 -1.1964409 0.19575499
N -0.34529197 -1.0522405 0.5098825
H -1.734969 0.13720746 -0.5612935
H 0.074205585 0.21593156 -2.0998478
H 0.72657365 1.5160003 -1.089909
H 1.5751483 -1.9897939 0.6713502
H -0.64094824 -1.2630801 1.4542574
