12

N -0.78347316 0.69893967 0.85767503
C 0.21406326 1.61440910 0.77098592
C -0.64252611 -0.47883011 -0.00064805
C 0.45206250 0.01275448 -0.97931379
N 0.95888029 1.17580189 -0.25696559
C -0.24278231 -1.66879160 0.77356797
N 0.04635608 -2.59533239 1.39897121
H -1.57447708 -0.70988577 -0.52773318
H 0.00758283 0.29345434 -1.94013403
H 1.70912959 1.73617357 -0.62571393
H 1.22584888 -0.74038202 -1.14653696
H -1.37066492 0.66168882 1.67584561
