12

N -1.4113674 -2.4761813 0.84832364
C 1.1298456 -0.1028177 0.12581456
C -0.28661013 0.8208463 -1.434947
C -0.9138963 -1.4337497 0.79158825
N 0.94514513 0.29537988 -1.2889287
C -0.3007729 -0.094753705 0.7167093
N -0.9778874 0.7633074 -0.2588067
H -1.9779655 0.8850173 -0.2346338
H 1.7666254 0.62877244 0.63490695
H 1.6150506 -1.0810082 0.17111441
H -0.3320964 0.34986883 1.7167434
H 0.7439293 1.4453187 -1.787884
