10

O 0.82316256 0.9336472 -1.7083229
C -0.01848505 0.81343377 -0.60260165
C 0.20787404 -0.49062425 0.12206876
O 1.0246054 -1.3028777 -0.25957367
C -0.616064 -0.78558147 1.3616097
O -1.442188 -0.019849883 1.7866324
H 1.3477947 0.1208411 -1.7501827
H 0.13869104 1.6346501 0.11405261
H -1.0794032 0.8609429 -0.89501584
H -0.3859874 -1.7645819 1.831333
