10

O 2.116955 -0.2475693 -0.3994728
C -1.0422584 0.5455251 1.1419246
C -0.47549132 -0.1931126 -1.1476132
O 1.175415 0.0843801 0.61461693
C -0.08692788 0.108424336 0.08496515
O -2.2334666 0.6038308 0.9680734
H 0.22313786 -0.4981903 -1.9172038
H -1.5323999 -0.11851717 -1.3719711
H -0.5726985 0.8225002 2.1084528
H 2.4277346 -1.1072713 -0.081772305
