10

O 1.79589714 -1.05670440 -0.60041397
C -0.42253793 0.39048540 -1.11775817
C -0.03424147 0.10590086 0.11892811
O 1.03454383 -0.64510302 0.52918392
C -0.76323823 0.59961483 1.32129535
O -1.78035669 1.24282555 1.25533478
H 0.11695018 0.04069785 -1.98955292
H -0.29404114 0.33531668 2.29154225
H -1.30925296 1.00091364 -1.23637734
H 1.65627736 -2.01394752 -0.57218230
