11

N -1.5139551 -0.30134377 -0.77404463
C 0.87090933 -0.29748777 -0.22450161
O -0.63743013 0.8143895 1.0272666
C 0.50690746 1.1004685 0.25394565
C -0.94636333 -0.43859905 0.40831095
O -0.51426536 -1.4695778 1.0211455
H 1.3022592 1.5395706 0.866817
H 1.4983867 -0.8935491 0.42713296
H 0.2617131 1.7356066 -0.604023
H 0.8762388 -0.5467758 -1.2785875
H -1.7044004 -1.242702 -1.1234621
