9

N 0.6429933 -0.9673669 1.3618085
C -0.047161423 0.07669295 0.91210055
N -0.0721337 0.10271185 -0.4572125
C -0.7366924 1.115271 -1.1290807
O -0.79037315 1.1899848 -2.331835
H 0.7288075 -1.0880333 2.357534
H -1.1981802 1.825723 -0.42652485
H 0.37681007 -0.58045727 -1.0726398
H 1.0959302 -1.6745261 0.78585017
