9

N -0.2270516 -0.20964779 0.4598873
C -0.38143975 -1.5850803 0.3871896
N 0.47221226 1.8134035 -0.2132642
C 0.5364862 0.47700608 -0.4407931
O -1.0321664 -2.2231064 1.1757072
H -0.6670875 0.2688911 1.2453241
H 0.16115458 -2.0109746 -0.47508037
H -0.0052119843 1.2110559 -1.2944944
H 1.1431042 2.2584524 -0.84447634
