13

C -0.66314083 1.2299901 -0.15508997
C -0.67793626 -0.0077465163 0.7400115
N 0.47098643 1.3938707 -0.8801955
O -1.5972108 2.0098085 -0.1872914
C -0.009935102 -1.2499508 0.17664628
O 1.4018205 -1.0429 0.13927785
H -0.3996096 -1.4613833 -0.82937366
H -1.7251881 -0.22283357 0.966246
H 1.252578 0.7670439 -0.7448918
H 0.57091844 2.234421 -1.4297853
H -0.24576433 -2.1089687 0.81936204
H -0.18544872 0.25679275 1.6838213
H 1.8079305 -1.7981441 -0.29873753
