11

N -0.069790915 1.450732 -0.28127217
C 0.7462378 -0.39416903 0.26334396
N 1.5057096 -1.4504658 0.67916006
N -2.3164375 0.8090315 -0.6591156
C -1.1161597 0.56043655 -0.37424958
N 1.0757174 0.84045 0.22267167
O -0.53468764 -0.672627 -0.103262626
H -2.8809676 -0.034886423 -0.6566292
H 1.3422654 -2.3145592 0.18153575
H 2.479666 -1.2102661 0.77765864
H -0.23155266 2.4163237 -0.04984088
