10

N 0.17429982 -0.5794604 1.1125197
C -0.05272944 -0.5209967 -0.28502882
N 0.16591421 0.5432123 1.6563705
N -0.09994934 1.4685873 0.5249186
N -0.122490026 -1.7327297 -0.9565075
C -0.23112348 0.7532523 -0.7592262
H -0.9539699 1.9819238 0.75744504
H 0.49658325 -2.4457197 -0.60061884
H 0.6583284 2.1548696 0.50748223
H -0.034863546 -1.6229392 -1.9573547
