10

N 0.55283662 0.85303002 1.42579170
C 0.12223614 0.49739017 -0.96689856
N 0.70233022 1.39514960 0.05067579
N -1.06232401 -1.62569233 -0.40106682
N -0.05401812 -0.22192144 1.24566763
C -0.33284789 -0.47998397 -0.11952827
H 0.24921897 2.31252493 0.04384049
H 1.69965337 1.56027967 -0.10537273
H -1.01290600 -1.88238116 -1.37733327
H -0.86417929 -2.40839555 0.20422446
