9

O -2.576521 0.67591095 0.29384974
C -1.6295817 0.09867587 0.76195306
C -0.2984854 0.046529036 0.09395693
N 0.7624807 -0.5485911 0.54440325
C 1.6600585 -0.28103846 -0.4552404
N 1.1832943 0.4231067 -1.4401842
O -0.12728378 0.6459247 -1.0775144
H -1.6617496 -0.4418855 1.7240052
H 2.687788 -0.61863226 -0.44522908
