9

O 0.7579539 -0.047612626 -0.85460854
C 0.005213009 -0.06775535 0.24892963
C 0.56577116 -0.6321513 1.5019971
N -0.016113317 0.5199393 -1.8403789
C -1.1393372 0.77837 -1.2367541
N -1.1858858 0.4290018 0.0847449
O 1.7747022 -1.0686318 1.4173427
H -1.966648 1.236262 -1.7601283
H 1.2043442 -1.1474221 2.4388552
