9

O -2.24618777 0.38605898 0.59812489
C -1.26692841 -0.24856098 1.18279101
C -0.09809376 -0.12879266 0.25809866
N 1.06990758 -0.64567552 0.49933162
C 1.78177595 -0.23821546 -0.60004259
N 1.11150353 0.47012450 -1.45423579
O -0.15244752 0.54761002 -0.89902345
H -3.02361604 0.33087321 1.17664914
H 2.82408645 -0.47342215 -0.76169340
