9

O -1.9785199 -0.056268558 -0.76310456
C -1.0190525 0.58200705 -1.0851997
C -0.09518474 1.1337751 0.03835415
N 0.9091227 -1.212973 0.1797428
C 0.8310579 -0.53742725 1.2761946
N 0.29920793 0.76970047 1.1146051
O 0.6050647 -0.6625108 -0.9178408
H -0.6854615 0.90232956 -2.0806117
H 1.1337655 -0.91863245 2.23786
