9

O -0.31075808 0.32736072 1.1855607
C 0.52217764 1.3203802 -1.9612749
C -1.0603861 -0.32426813 -0.81064045
N -0.21100226 0.5706077 -1.4280517
C 0.9762149 -0.075701945 1.2973856
N -1.1502045 -0.5249863 0.43999007
O 1.4822822 -0.98920846 0.71970737
H 1.4594508 0.5972764 2.0190892
H -1.7077749 -0.9014602 -1.461766
