9

O -2.5762327 0.6751423 0.29194808
C -1.6306331 0.09944017 0.7628902
C -0.2998688 0.04505808 0.094858564
N 0.7605864 -0.5493459 0.5425587
C 1.6596094 -0.2817431 -0.4552836
N 1.1853255 0.4234771 -1.4409035
O -0.124957494 0.64611435 -1.0784725
H -1.6605798 -0.4381515 1.7269461
H 2.6867507 -0.6199915 -0.44454214
