9

O -0.31145878 -1.06978899 -0.60649383
C -0.59055315 0.16465461 1.22916319
C 0.08408644 -0.24589390 -1.60449416
N -1.19527176 -0.50220716 0.33359488
C 1.92550275 0.60133034 1.33922127
N 0.76898834 0.39127115 1.29035287
O -0.13061559 0.92570050 -1.67919352
H -1.18719045 0.59749663 2.02471278
H 0.63651231 -0.86256317 -2.32686356
