13

C 0.5827814 -1.5840214 -1.1658012
N 0.22700785 -0.6430725 -0.12697311
C -0.053774003 0.66106105 -0.380428
O -0.07390101 1.1687678 -1.4864337
C -0.3362356 1.4773257 0.8776993
O -0.56324863 0.6936536 2.036474
H -0.113947555 -2.429053 -1.1812638
H 0.53401536 -1.060062 -2.121876
H 1.5996972 -1.963303 -1.0197077
H 0.27449802 -0.9109137 0.8456466
H -1.167198 2.1573932 0.6551386
H 0.5492808 2.0892608 1.082317
H -1.458976 0.3429639 1.9852076
