13

C -1.7853647 -0.18796965 -0.75765544
N -0.672405 0.5428677 -0.15835582
C 1.6073139 0.10518256 0.44010565
O -0.21607661 -1.1368665 1.3195156
C 0.30178103 -0.16582358 0.5188147
O 2.0726762 1.0000787 -0.51537126
H -2.5050077 0.5415257 -1.1384845
H -2.2818418 -0.78862584 0.0060487646
H -1.4806215 -0.84791726 -1.5832725
H 2.3290532 1.8107866 -0.057776228
H 2.3432617 -0.38653827 1.0736743
H 0.51425683 -1.6755046 1.6467161
H -0.2270252 1.1888045 -0.79395944
