11

N -2.2142744 1.6766595 -1.5424916
C 0.28338054 0.42810327 0.7080701
C -1.5079371 0.8895202 -1.0729182
C -0.60014 -0.11896901 -0.45788726
C 1.1553775 -0.7489102 0.5364541
O -1.0340331 -1.3159133 -0.24437585
H -0.27034152 0.44553244 1.6539339
H 0.78442657 1.3771046 0.5032842
H 2.1389184 -0.6646309 0.07690519
H 0.9106976 -1.6903205 1.0102504
H 0.35392585 -0.27817622 -1.1712253
