11

N 1.3649168 -0.6696641 2.5966907
C 0.6593771 -0.67448634 1.6832386
C -0.24301803 -0.65333736 0.51421297
C -0.5319949 0.7427795 -0.0753661
C 0.2423683 0.22115949 -1.2923791
O 0.4050904 -1.0783682 -0.68437773
H -1.1216531 -1.265839 0.7457362
H -1.5930057 0.9367507 -0.24413536
H -0.07938195 1.5782359 0.460308
H -0.31343308 0.15962437 -2.2311177
H 1.2107339 0.70314544 -1.4728099
