10

N 1.29957071 -0.12027966 0.53734509
C 0.22018600 -0.37990705 -0.06685048
O -1.48840915 2.58850294 0.33269379
N -0.15980316 -1.49885201 -0.76302381
C -0.61237953 1.78092518 0.36677995
O -0.81056108 0.52748531 -0.13536500
H 0.39697638 1.93169991 0.77194617
H 1.96351095 -0.88360199 0.48517589
H 0.33414850 -2.35301452 -0.56515331
H -1.14323941 -1.59295814 -0.96354823
