10

O 1.2418618 0.51185685 -1.7533485
C 0.4730649 0.08554399 -0.7373863
N -0.061609287 -1.0915377 -0.6071919
C -0.7495486 -1.0239048 0.5919636
C -0.6145012 0.20151341 1.1652672
N 0.18953343 0.92361885 0.28562054
H 1.3072656 -0.24088149 -2.3597186
H -1.3023276 -1.8747957 0.9636709
H -0.9911388 0.6343787 2.0794373
H 0.50739986 1.8742077 0.37168553
