12

O -1.34638275 0.32516148 -0.73592649
C 1.02457772 0.23660135 -0.61607713
C -0.26793573 0.56630043 0.12781163
O 0.98316824 -1.08607393 -1.08756045
C -0.39956924 -0.30031171 1.36335881
O -1.37791368 -0.98673821 1.53404318
H -0.24755041 1.61822493 0.45851787
H 1.15341211 0.96398082 -1.42990611
H 0.13227651 -1.17495352 -1.54288130
H 1.88591871 0.31959755 0.05713547
H 0.42552346 -0.25283136 2.10149127
H -1.96552480 -0.22895763 -0.23000715
