12

O -1.2719936 -0.914421 1.5327946
C 0.4187617 0.8304959 -0.9758912
C -1.001932 0.14484069 1.0139574
O -0.085055225 -0.7374228 -1.6959227
C 0.39224133 0.43308076 0.47654757
O 1.1871616 -0.71466047 0.6839748
H 0.7022441 -1.2629672 1.3255115
H 0.754626 -0.14940797 -2.0095036
H -0.46795958 1.4183432 -1.2366422
H 0.338201 -1.3165531 -1.0262922
H 0.7796574 1.317132 1.0159714
H -1.7459526 0.95154023 0.89549506
