12

O -1.3767396 0.7310272 0.17392977
C 0.39228472 -0.35322642 1.3527505
C 0.5029503 0.04947451 -1.1090013
O -0.15471224 -1.1566734 -1.4025458
C 0.018039316 0.59536237 0.2324646
O -0.45117688 -0.79374874 2.0957074
H -1.0982239 -0.9790448 -1.2703822
H -1.7144014 0.28967187 0.97238404
H 1.4669569 -0.5980387 1.4668493
H 1.577966 -0.1623354 -1.070405
H 0.3310812 0.8145656 -1.8791269
H 0.5059757 1.562966 0.4373759
