12

N -0.66247404 -0.62366587 1.0554907
C -0.35450947 0.61441565 0.9036412
N -0.7065192 1.6207284 1.7689581
C 1.0919721 -1.5087931 -0.89714074
C -0.17710918 -1.3453497 -1.1609362
C 0.6399507 -0.09712961 -1.0917422
N 0.49673307 0.89621407 -0.095624425
H -0.57627046 2.5415108 1.382954
H -1.1259327 -1.8051739 -1.3855501
H 0.98458815 0.39208347 -2.0083618
H -1.5515447 1.4753261 2.2960212
H 1.9411159 -2.1601663 -0.76770973
