12

N 2.1680624 0.39498368 -0.6950593
C 0.8865631 0.16501856 -0.28231972
N 0.70254666 -0.8414617 0.58468956
C -0.54228956 -1.0243686 1.0061835
C -1.6070212 -0.24038738 0.5877029
C -1.2923259 0.76453376 -0.32134435
N -0.061166566 0.981908 -0.7704923
H 2.2898235 0.9662523 -1.5148704
H 2.83382 -0.3438334 -0.5303457
H -0.69524026 -1.8429732 1.7089382
H -2.6186001 -0.40201405 0.94018525
H -2.0641713 1.4223418 -0.7132676
