12

N 0.98460956 1.47929879 -1.53450613
C 0.39872892 0.29879376 -1.29425217
N 0.64715659 -0.82404244 -0.53731410
C 0.22494049 -0.67282169 0.86999177
C -0.92166808 -1.42739611 1.39249870
C -1.10088049 -0.13957052 1.26385869
N -0.57260126 -0.46601218 -1.54221453
H 1.76835805 1.76489805 -0.96893220
H 1.12333195 -0.50920222 1.47373566
H -1.31011817 -2.40154773 1.63489755
H -1.74205265 0.72415158 1.31992736
H 0.50019587 2.17345050 -2.07769057
