11

O -0.39234415 -0.8501092 -1.572984
C 0.89024985 -1.2142582 -1.0336916
O -1.2971886 -0.8647743 1.6132511
C -0.7325051 -0.110153064 0.8844188
C 0.024852049 -0.20912898 -0.4285572
C -0.41573015 1.3828856 0.83549553
O 0.25831363 1.1753901 -0.4236427
H 0.94036573 -2.2215621 -0.6232777
H -1.2807441 2.0485535 0.746319
H 1.7448105 -0.87622935 -1.6161528
H 0.25992066 1.7393858 1.6188216
