11

O -1.795754 0.65595794 -1.6448568
C -1.1596408 0.026199132 -0.8664809
O -1.2148061 -1.3168298 -0.6061892
C -0.21908702 -1.2392057 0.45452863
C -0.04544511 0.23581141 0.13729587
C 1.1251721 1.1011521 0.068620466
O 0.08862776 1.2966105 1.0262873
H 0.62887764 -1.895313 0.2492913
H -0.6656836 -1.457625 1.4261461
H 1.1878284 1.8554769 -0.7133555
H 2.0699105 0.7377655 0.46871257
