9

O 2.5033228 -0.3053891 -0.05213433
C 1.4264368 0.2187071 -0.13185377
C 0.21066324 -0.23549013 0.6651298
C -1.025154 -0.096250206 -0.10508924
C -2.0112019 0.03838795 -0.7787686
H 1.2525285 1.0970759 -0.78916746
H 0.16165641 0.39594838 1.5622813
H 0.37404087 -1.2654458 1.0004014
H -2.8922923 0.15245599 -1.3707992
