9

O -0.6134269 1.4641545 0.0625707
C 0.12180208 0.34063947 0.5340495
C 1.7040277 -0.93633527 -1.1729319
C -1.342884 0.30433518 0.41702405
C 0.97630847 -0.34914052 -0.41383028
H -1.7880086 -0.2372871 -0.4152627
H -1.9529773 0.3865987 1.3149872
H 0.55080956 0.47894716 1.527098
H 2.344349 -1.4519123 -1.8537046
