9

O -0.89241367 0.50061002 1.21529563
C 1.62785046 0.96863289 -1.25222072
C 0.13914597 -0.24589221 0.57987524
C 0.93852925 0.43159642 -0.42334418
C -1.28030773 -0.55288586 0.35354721
H 2.23185669 1.45238771 -1.98736714
H 0.69871715 -0.89129947 1.25785115
H -1.72339455 -1.42083206 0.83899792
H -1.73998315 -0.24231735 -0.58263522
