11

N 0.06639870 1.56926874 -0.28457871
C 0.30923249 -0.53351306 -0.82266809
C 0.50609404 0.75482533 -1.26442140
C -0.26375286 -0.37342088 0.46523350
N -0.71079890 -1.38196105 1.31732047
N -0.40116522 0.90273001 0.78846886
H 0.90943543 1.14046019 -2.18999968
H 0.52526073 -1.45513402 -1.34256608
H 0.05140400 2.57484362 -0.27165224
H -0.90874277 -1.02449351 2.24216804
H -0.08336561 -2.17360537 1.36269521
