11

N -1.9238923 -0.1337041 0.06546577
C -0.5414742 -0.087968305 0.10192177
C 1.5932814 0.36278397 -0.22562177
C 0.32153437 0.8915807 -0.4011472
N 0.15291105 -1.1045531 0.6429667
N 1.5576178 -0.8079587 0.42404774
H -2.3734007 0.76993287 0.06972333
H 2.5473428 0.78034717 -0.52197075
H 0.05144581 1.8442801 -0.8364547
H -2.317348 -0.76331896 0.74878895
H 0.9319815 -1.7514216 -0.067719914
