9

O -0.44667292 -1.7222644 -0.794791
C 0.16844492 0.17425612 0.4947845
C -0.8257591 -0.7140595 -0.25732213
O 1.3966218 -0.4362556 0.5874959
C 0.17142461 2.3826015 -0.898806
N 0.19378756 1.407246 -0.24272689
H -0.20118171 0.40495738 1.4998401
H 1.4135431 -1.135926 -0.086399674
H -1.8702085 -0.36055568 -0.3020749
