9

O -1.28660281 1.02199450 -1.04765666
C 0.05075505 -2.37772642 0.92621247
C 0.48298875 0.10534455 0.24325913
O 0.10706707 1.02548993 1.19286631
C -0.34804087 0.26839696 -1.03189354
N 0.27403293 -1.25723101 0.64891250
H -0.05988712 -0.35717430 -1.89414079
H -0.77115579 1.35152013 0.93520538
H 1.55084267 0.21938585 0.02723536
