11

N 0.73653156 1.7378296 2.342535
C 0.24994151 1.3212303 1.3828542
C -0.34548742 0.78029734 0.14673677
C 0.580053 -0.11733624 -0.70044476
C -0.4020067 -1.2311715 -0.31364897
O -1.2401613 -0.30253494 0.40006387
H -0.83472824 1.5997158 -0.3896597
H 0.5925885 0.14470518 -1.7583375
H 1.5992906 -0.22291006 -0.32827064
H -0.9380242 -1.7101609 -1.1366738
H 0.0020028166 -1.9996647 0.35484514
