11

N -0.86765784 1.4899545 1.7201582
C -0.09887139 0.6244354 1.4377726
C 0.47332573 -0.005563739 -1.255784
C -0.74817926 -0.24550983 -0.34040117
C 0.49825054 -0.45362768 0.7618094
O 1.4641275 -0.14661862 -0.1993161
H -1.1785902 -1.2445873 -0.48575515
H -1.4052688 1.1112443 0.7659959
H 0.5462148 0.99698603 -1.697572
H 0.6542206 -1.3730597 1.3321311
H 0.6624281 -0.7536532 -2.039039
