11

N -0.63017976 -0.71243584 -1.9385314
C -0.32454744 -0.27858442 -0.79783446
C 0.7064249 -0.8755331 0.13293925
O 0.44132465 -0.24474163 1.3705249
C -0.12843344 0.98985404 1.0493933
O -0.84601134 0.8111704 -0.17005864
H -1.3321726 -0.12749887 -2.383431
H 0.5870724 -1.9556707 0.24061437
H 1.7180674 -0.64998 -0.23143657
H -0.8276774 1.2798632 1.8355889
H 0.63613266 1.7635568 0.8922313
