11

O -0.17637448 -2.31882747 0.17766456
C -0.14621622 0.31412925 0.67806763
C -0.58160628 -1.06703364 0.34597782
C -1.54479966 -0.21263386 0.33210945
C 0.65271687 1.08577665 -0.32407876
N 1.08803782 0.53303693 -1.38114888
H 0.78277277 -2.35471454 0.28850292
H -2.57276455 0.06355478 0.18586990
H 1.59515143 1.20839389 -1.95081117
H 0.83771965 2.13867593 -0.06602731
H 0.06536277 0.60964207 1.71387413
