9

O 0.75265515 1.7360783 -0.096597575
C -0.073028505 0.9097544 0.17333984
C -0.24649616 -0.53212124 -1.079052
C 0.41882762 -0.47012112 1.3138788
C 0.23289388 -0.92752576 0.1580341
H -1.1217635 0.98634094 0.46363896
H 0.80579436 -0.5564533 2.3105857
H 0.46892267 -0.2908084 -1.8595582
H -1.2378057 -0.8551439 -1.3842695
