10

O -0.31359646 1.8591762 -1.0469155
C 0.44855618 -0.3259946 1.5511885
C -0.17264405 -0.49309036 -1.0470963
N 0.041644532 -1.622618 -0.43027475
N 0.05311155 0.8368489 0.952539
C -0.1136158 0.74616605 -0.34050885
N 0.4867228 -1.484333 0.83469766
H -0.28752664 2.5927057 -0.40787703
H 0.32120517 -1.5903186 2.0261796
H -0.46385735 -0.5185425 -2.091932
