10

O -1.5781815 1.1802685 -0.9647895
C 0.77148086 -1.4634858 -0.6577987
C -0.61952585 0.39441177 -0.46604848
N -0.22275473 -0.63385665 -1.1519787
N 1.2071047 -1.041821 0.5634512
C -0.09066979 0.74479395 0.81054944
N 0.8428025 0.006560057 1.3218297
H -0.4354949 1.602316 1.3745953
H -1.8153497 0.79767436 -1.8271332
H 1.9405886 -1.5868611 0.9973231
