10

O -1.38217602 1.44654962 -0.90088457
C -0.34269278 -1.71408850 0.33783842
C 0.70061503 0.85336963 0.02878013
N 1.46648513 -0.05090798 0.55174503
N -1.11189428 -0.70352803 -0.21722860
C -0.62141814 0.48975969 -0.36131572
N 0.89924915 -1.26337951 0.67468006
H 1.53283999 -1.93880820 1.08170696
H 1.09479311 1.85461400 -0.09175825
H -2.23580090 1.02641928 -1.10356353
