10

N 0.13655247 1.420683 -0.78623027
C -0.23071821 -0.71330756 0.30280745
O 1.722094 0.58649886 0.6253569
C 0.6483722 0.5012839 0.06410653
O -1.3959662 -0.6817202 -0.38261518
N 0.07669797 -1.6700177 1.0633823
H -1.8697536 -1.4959713 -0.15234597
H 0.67877585 2.2476888 -0.98205715
H -0.761689 1.2943931 -1.2202239
H 0.9956346 -1.4895312 1.4678195
