11

C -0.52995104 0.9331234 0.5209431
O 0.4925196 -1.2986798 0.4108545
C 0.6843612 0.09488212 0.18992081
C 0.6689102 -0.8385637 -0.93028504
O -1.7195956 0.26590896 0.17750308
H -0.5058353 1.1849028 1.5929743
H 1.6422173 0.47901598 0.54229903
H 1.6062473 -1.1417764 -1.3958554
H -0.22131824 -0.90458214 -1.5512651
H -0.50261617 1.8692594 -0.045832507
H -1.6149395 -0.64349073 0.48874322
