11

C -0.63284259 0.98807224 0.21487811
O -1.70452812 0.24234557 -0.30834478
C 0.87262112 -0.95498629 -0.58531507
C 0.61467626 0.14253267 0.33952954
O 0.35474333 -1.20399498 0.72284126
H -1.69440982 -0.60376650 0.15944054
H -0.44994782 1.82421944 -0.46757318
H 0.16894909 -1.14231780 -1.39292507
H 1.89353627 -1.30113236 -0.74409069
H 1.45625339 0.60371986 0.85747919
H -0.87905151 1.40530791 1.20408026
