11

C -1.3061383 0.10223433 -0.7813179
O 0.0690474 -0.013144973 -1.0832483
C 0.81686985 -0.53041005 -0.019166991
C 1.0205015 0.49364865 1.0847487
O 1.2842544 0.2059963 2.224559
H -1.7469988 -0.87639266 -0.5410743
H -1.4836049 0.7873047 0.06107529
H -1.7914691 0.5057256 -1.6711245
H 1.8076652 -0.77506524 -0.4202757
H 0.3833888 -1.4483321 0.4044752
H 0.94648355 1.5484352 0.7413496
