10

C -1.0842137 0.24561669 -0.25145924
C -0.31844357 -0.59945464 -1.0485923
N 0.949259 -0.8925571 -0.7632609
C 1.4454944 -0.3265603 0.336069
N 0.81264764 0.49491015 1.1728358
C -0.45546016 0.77402925 0.86755705
H -2.1151247 0.47837 -0.49124
H -0.7330485 -1.0569588 -1.9445435
H 2.480907 -0.5603619 0.5781521
H -0.98201716 1.4429666 1.5444821
