10

O 0.9513844 1.7670386 -1.5152669
C -0.26149908 -1.1698687 0.22052002
N -0.9367782 -0.7726795 -0.7756756
C 0.29485226 1.610628 -0.5195225
C 0.5739192 -0.19280626 0.98284954
N 0.78693604 1.0083091 0.6516395
H -1.4720465 -1.5349312 -1.1916192
H -0.7136604 2.0399752 -0.3650339
H 1.0192491 -0.55620205 1.9132042
H -0.24235694 -2.199463 0.5989045
