11

N 0.87170595 -1.4860729 1.2091371
C 0.61110353 -0.1597949 0.7756288
O -0.33112854 0.028670391 -0.23185214
N -0.9343574 1.0046436 -2.0437777
C 0.04053594 0.9520091 -1.1423885
N 0.05289134 -0.55419993 2.015527
H -1.7661806 0.42202675 -2.0180786
H -0.848373 1.6484107 -2.811796
H 0.6502059 -0.26671138 2.7861147
H 1.4536608 0.5235656 0.688782
H 0.19993621 -2.112547 0.77270347
