10

O 1.2394472 0.5102884 -1.7547568
C 0.47147703 0.083838865 -0.73753005
N -0.06318644 -1.0930171 -0.606844
C -0.74905545 -1.0241514 0.59396124
C -0.6125663 0.20263503 1.1664374
N 0.1899427 0.92369694 0.28607953
H 1.303469 -0.23863222 -2.3643444
H -1.3024652 -1.8751554 0.96509355
H -0.9868256 0.63615197 2.0813663
H 0.5097631 1.8743446 0.37053716
