10

O 0.58089775 -1.856747 0.6110904
C -1.1399962 0.8239084 0.1516958
N 1.0441568 0.31211466 -0.21229959
C 0.2581003 1.298293 -0.015467207
C 0.166432 -0.860117 -0.25988603
N -1.1935282 -0.45033938 0.06047069
H 0.6041866 2.3269186 0.030990738
H 1.5462826 -1.8450938 0.6070507
H 0.14521466 -1.1935247 -1.3115938
H -2.0117464 1.4445877 0.3379483
