10

O 1.520284 -1.3756156 -0.7759816
C -1.2606694 0.19428712 0.3945437
N -0.74590975 -0.75248533 -0.40238774
C 0.577164 -0.48422912 -0.40257466
C -0.2598396 1.0353117 0.8769831
N 0.94485945 0.60890985 0.41886327
H 1.0495851 -2.0951083 -1.2199386
H -0.345359 1.9466274 1.4508303
H 0.84732014 0.655115 -0.90848106
H -2.3274353 0.2671873 0.5681435
