10

O 0.6522839 0.11331811 -1.4382724
C -0.89362156 0.6470444 0.20605944
O -0.40137497 -1.3996893 1.5588672
C 0.6424566 -0.9798424 -0.55240697
C 0.4234275 0.87763 -0.3688922
C -0.3042105 -0.7754208 0.52380973
H 1.4710344 -1.6776854 -0.6257214
H -1.7021648 0.6086807 -0.5232006
H -1.1383976 1.1757656 1.1265433
H 1.2505671 1.4101993 0.09321371
