11

C 0.34440595 1.2583705 -0.57807714
N 1.0608085 -2.467779 1.4164389
C 0.32859704 -1.8612906 0.7467627
C -0.60420066 -1.0775851 0.0143979
N -0.45834973 0.44919297 0.33104226
H -0.086322084 1.1910084 -1.5800384
H 1.3688939 0.86911356 -0.6023014
H 0.34384173 2.3020635 -0.25029513
H -0.5701235 -1.1901156 -1.0641681
H -1.5011991 -0.02542919 0.25236624
H -0.2263519 0.5524504 1.3138722
