11

C 1.3813818 0.0064675584 0.02356435
N 0.240476 -0.62503356 -0.62935704
C -0.99784744 -0.4990958 0.10809985
C -1.4289185 0.90189093 0.3368745
N -1.7083769 2.0143716 0.46948612
H 1.2474637 1.0818595 0.21173568
H 2.267042 -0.13466974 -0.6017319
H 1.5651501 -0.49191946 0.9820687
H 0.11737489 -0.2431861 -1.5599282
H -1.7964981 -1.0240475 -0.4253111
H -0.88724715 -0.9866371 1.084499
