10

N -1.3609586 0.6722315 -0.7683243
C 0.20774296 0.58237565 1.2229959
C -0.5708438 -0.13712013 0.12958471
O 1.4334446 0.11880348 1.0767378
C 1.4832464 -0.78533036 -0.02399748
N 0.39835075 -0.96466315 -0.61740416
H -1.2409952 -0.8343699 0.6637989
H -0.7646482 1.3508152 -1.2295783
H -2.0485935 1.195443 -0.23465995
H 2.4632542 -1.1981853 -0.2191534
