10

N -1.24195567 -0.45136140 -1.07156174
C -0.57238761 -0.09514532 0.15740562
C -0.07119643 1.33638927 0.29501249
O 1.19289655 1.18285418 0.63725657
C 1.51878172 -0.20389988 0.68488437
N 0.58156869 -0.98261997 0.40826717
H -1.27352451 -0.23748952 0.99930235
H 2.54743921 -0.41252987 0.94428294
H -2.05632654 0.14237730 -1.19671812
H -0.62529540 -0.27857485 -1.85813157
