11

O 0.51062226 -1.5880454 -0.3914035
C -0.8037442 0.48300582 -1.0051198
O -1.8335989 0.8578178 -0.35215366
C 1.461764 -0.57233596 -0.056310974
C 0.03341127 -0.28010908 -0.09087952
C -0.916387 0.26353014 1.013478
O -1.4110999 -0.22184967 1.9908557
H 1.927492 -0.65209115 0.9238072
H -0.37562463 1.3109071 0.92471427
H 2.109678 -0.26621482 -0.8769942
H -0.702513 0.665385 -2.0799935
