11

O -1.66684282 -0.76600367 -1.22858035
C 0.53777633 0.22576124 1.53399923
N 0.44598366 0.22642445 -0.88257655
C 1.13680928 0.52962159 0.35631490
O 2.35049225 1.11127567 0.19854617
C -0.63862556 -0.28987962 -0.52564073
N -0.76599878 -0.37650339 0.93298344
H -1.57165023 0.14560287 1.28208861
H 2.51310950 1.19083280 -0.74924273
H -1.46109679 -0.65568655 -2.16746476
H -0.87995702 -1.34144512 1.24957269
