11

O -0.7411923 -0.2056543 -2.0695112
C -0.25253052 -0.06725957 -0.8365856
N -1.1910148 -0.33771747 0.25767756
C -0.40712655 -0.121081874 1.5852168
O 1.9167991 0.54492944 1.6816959
C 0.778912 0.21781597 1.0225688
N 0.8863068 0.2533512 -0.42353776
H -1.5544989 -1.292135 0.22170174
H 2.5941844 0.7261785 1.0188419
H -0.030638857 -0.0051599885 -2.694748
H -1.9992005 0.28673315 0.23667976
