11

O 1.348338 1.8846033 0.08571261
C 0.60272026 0.8504054 0.09541429
C -0.33343142 -0.7739752 -1.0803975
C -0.7719074 -1.0076617 0.16975291
C -0.19183214 0.050910767 1.0867517
N 0.50734806 0.3589809 -1.118502
H 1.2940083 1.4448324 -1.1841826
H -0.5441329 -1.3266678 -1.9877437
H -1.4249374 -1.808439 0.4879516
H 0.45982835 -0.35048077 1.8709229
H -0.9460017 0.67749166 1.5743197
