11

N -1.1191285 1.0630156 -0.099746816
C 0.2121776 -0.5593394 -0.07598569
C 0.93217224 0.48939258 0.69818884
N -1.086769 -0.1715074 -0.48433647
N 0.4305397 -1.9443678 0.060568828
C -0.0017813045 1.5190973 0.5539706
H -1.9244922 1.6177424 -0.3702316
H 0.016584158 2.5461729 0.8969081
H 1.340561 -2.1112783 0.46925586
H 0.8925343 0.00449452 -0.84383947
H 0.30760193 -2.4534223 -0.8047522
