11

N -0.23113881 0.9054382 -0.7587556
C 0.4013741 -1.1466492 0.4306723
C 0.7890346 -1.1288074 -0.8820643
N -0.2652304 0.96380967 1.6457722
N 0.39926583 0.084080786 -1.48773
C -0.36725426 0.1361902 0.4908517
H 1.3460562 -1.8251092 -1.4988289
H -1.3828099 -0.29851344 0.31186226
H -1.0499943 1.5948573 1.7438775
H -0.18174706 0.37597242 2.465424
H 0.542444 0.3387307 -2.4610815
