11

N -0.7319176 -0.75748396 1.560617
C -0.19404621 -0.13206576 0.4217622
C -0.1287605 -0.61256933 -0.8694014
N 0.40279466 0.3927272 -1.6173048
N 0.69155717 1.4829766 -0.90768164
C 0.331121 1.1792464 0.33161244
H -0.21973947 -0.5297164 2.4026031
H -0.7724785 -1.7631354 1.4624883
H -0.41545603 -1.5597448 -1.3014296
H 0.58484864 0.39301413 -2.6062686
H 0.45207685 1.906751 1.1230026
