11

C -1.4941787 0.9186919 -1.2533937
N 0.8679827 -0.13954568 1.1016345
C 1.3896055 -1.3524349 0.49420115
O -0.42007563 0.29565632 -0.7975348
C 0.040377628 0.58382756 0.50494456
O -2.1694565 1.6746672 -0.46171188
H -2.4954908 1.5369079 -1.6200124
H 2.4743454 -1.2459643 0.41302556
H 0.97285175 -1.5881774 -0.49131384
H -0.3547294 1.4998459 0.9326535
H 1.1887681 -2.1834745 1.1775073
