11

C -0.37099257 0.6262682 0.25699627
N -1.3806953 -0.040302582 -0.07122435
C 2.0462687 0.6827084 0.32407087
O 1.7630509 1.0908285 1.556602
C -1.2836435 -1.1543995 -0.99523765
O 0.9005728 0.39790404 -0.28531596
H -1.6728948 -2.0445998 -0.49060896
H -0.2698415 -1.3641815 -1.3577695
H 2.6176054 1.2900472 1.9652227
H -0.41651452 1.4620303 0.9485473
H -1.9329153 -0.94630337 -1.8512825
