10

N 0.7476056 1.5741965 -1.28243
C -0.35783294 -1.2903354 0.48437306
C 0.29908705 0.7760543 -0.41635585
C -0.42853937 -0.06638824 1.558619
C 0.19189453 -0.6834299 -0.60474473
O 0.008456837 1.1084057 0.89223605
O -1.5255407 -0.4493594 0.9595689
H 0.7463373 2.5326567 -0.9386627
H -0.3735939 -2.3276892 0.77896315
H 0.6921257 -1.174111 -1.4315668
