10

N -1.5381265 -1.4224049 0.7491705
C -0.67956287 -0.6418758 0.26596686
C 0.14306688 0.3325695 1.012401
C 0.9245252 0.9652424 0.13750961
C 0.6380135 0.42032674 -1.2177755
O 1.103788 0.69654447 -2.2811725
O -0.34125462 -0.5478966 -1.0699446
H -1.9688888 -1.9930882 0.022961495
H 0.05825799 0.44850898 2.0834699
H 1.6601812 1.7420737 0.2974134
