11

N 1.9171342 0.62012833 -1.2068409
C 0.8875247 0.263836 -0.56674564
C 0.054072894 1.1208023 0.30190775
C -0.9335326 0.38417208 0.7967132
C -0.806623 -1.0180557 0.2781984
O 0.34913176 -0.9942371 -0.56024534
H 2.307202 -0.15934068 -1.7333032
H 0.27511755 2.1684582 0.4626732
H -1.7246357 0.69823074 1.4682821
H -1.6728361 -1.3305157 -0.31708294
H -0.652556 -1.7534782 1.0764434
