11

N 1.2913693 -2.1647134 0.064109124
C -0.28117338 1.7530756 0.18770173
C -0.9879862 0.74819434 -0.36784112
C -0.46421453 -0.5573751 -0.6615929
C 0.62889344 -0.9900232 0.028689858
O 1.4325856 -0.37921855 0.8405825
H 0.79369676 1.6951694 0.3269057
H -2.0424657 0.9153007 -0.58960176
H -0.9515351 -1.234546 -1.3560618
H -0.7783079 2.6688902 0.4898229
H 1.3591378 -2.4547544 1.0372857
