11

N -1.58763392 1.08952591 1.71369215
C 0.74189423 -0.14504942 -1.10393779
C 0.04836306 0.86512892 -0.30667002
C -0.72438740 0.59683572 0.73533615
C 0.75390889 -1.46710139 -0.90125973
O -1.19280868 -0.38843230 1.48046500
H 1.29503159 -2.11718522 -1.57893392
H 0.16005513 1.91164393 -0.56530073
H -1.03253049 1.33015765 2.54027891
H 1.29866346 0.25518718 -1.94982575
H 0.23944382 -1.93071071 -0.06384424
