11

C 1.5284507 -0.42955276 -0.42127085
C -0.7039165 -0.13697696 -0.69062346
O 0.5984059 0.072912805 -1.2410731
C -0.58173674 0.54521185 0.68249476
O 0.6236103 0.10632088 1.2726569
H -1.4109206 0.24595569 1.334858
H -0.89856464 -1.2120755 -0.57580507
H 1.5596199 0.3525738 0.6475773
H 1.3154004 -1.4982917 -0.21764745
H -1.4425554 0.3183704 -1.3534095
H -0.58779323 1.6355516 0.56224227
