11

C -0.8392557 -0.14094542 -0.71213025
C 0.40360764 -0.9276562 -0.29214814
O 0.6582355 -0.4311405 1.0104586
C 0.35099196 0.9348543 0.9209628
O -0.7369977 1.0674106 0.029792435
H -1.7630029 -0.66118425 -0.4339821
H -0.86219066 0.08024909 -1.7851415
H 0.2497931 -2.0070348 -0.22981165
H 1.2531142 -0.7148191 -0.9585573
H 0.071312346 1.2977154 1.913918
H 1.2143922 1.5025513 0.5366391
