11

C -1.1028471 -0.2587725 -0.023087751
C 2.053166 0.21089163 0.70708704
O 1.2646058 -0.60886204 0.073602155
C 0.19852242 -0.16064987 -0.79847425
O -1.0965345 0.5700196 1.115128
H 1.7902292 1.2438309 0.34740975
H -1.28966 -1.3120818 0.23418948
H -1.9202325 0.088427946 -0.6632925
H -0.5120534 0.17278396 1.7715892
H 0.40763396 0.874055 -1.0936811
H 0.2071698 -0.819643 -1.6704702
