10

O 0.9558284 2.0911334 -1.1619904
C 0.6722211 1.1142495 -0.54728687
O 1.1298771 0.75520444 0.70884806
C 0.4993616 -0.5373821 0.5678396
C -0.96655273 -0.36947915 0.50571144
C -0.12060485 -0.14810692 -0.7435383
H 1.0774897 -1.4053458 0.8503938
H -1.5568519 -1.2809697 0.4758909
H -1.4311683 0.47232026 1.0129391
H -0.25960028 -0.6916235 -1.6688073
