10

O -0.48070633 -0.47748277 -1.1616619
C -0.62035066 1.223367 0.5052348
O -1.4093428 1.4766879 -1.7670292
C -0.8993281 0.7945016 -0.92078876
C 0.2728906 -0.9719395 -0.058112726
C 0.40601245 0.23735735 0.877148
H 1.2961644 0.84407204 0.60694236
H 0.4968144 0.021359561 1.9432982
H -0.2827848 -1.7883377 0.41345334
H 1.2206308 -1.3595855 -0.4384845
