10

C 0.8190433 -0.095011465 0.78505135
C 0.44642815 1.135616 0.26075146
N -0.51089096 1.262824 -0.6584045
C -1.09111 0.12796928 -1.045779
N -0.8220566 -1.10576 -0.6202001
C 0.13882284 -1.2050935 0.29918897
H 1.5974158 -0.18605702 1.5331008
H 0.9294692 2.054717 0.5864755
H -1.874271 0.2177216 -1.7959082
H 0.3671491 -2.2069256 0.655724
