10

C -1.15847572 -0.49932679 -0.50784786
C 1.09331318 -0.30771307 0.59289984
O -0.02181492 1.58077523 -0.24580259
C -0.12237591 0.23006645 -0.09603911
H -1.17991164 -1.57121742 -0.35681214
H -2.01442781 -0.04585917 -1.00295768
H -0.81347777 1.90833233 -0.68979142
H 1.03374850 -1.39208636 0.69969292
H 1.19194066 0.14679183 1.58475798
H 1.99148156 -0.04976313 0.02190018
