10

C -0.55939037 1.2217678 -0.09949414
C 0.035488702 -1.3517085 0.08712852
O 1.6069764 0.15303499 -0.15975605
C 0.33138433 0.02742384 -0.040574927
H 0.43196586 -1.774633 1.0117493
H -0.9387729 -1.7501588 -0.193727
H -0.03940879 2.0684636 -0.5559426
H 1.4556602 -1.0825307 -0.3113872
H -1.4725116 0.993266 -0.65713257
H -0.8513917 1.4950746 0.91913664
