10

C -0.21160021 -0.021010324 0.17864451
C -0.57624274 -1.1663179 -0.39616862
O -0.8565147 0.5523193 1.2333171
C 0.95625395 0.81972426 -0.234908
H -0.019557761 -1.5720625 -1.2314494
H 1.4684896 0.38116372 -1.0928692
H 0.61776215 1.82866 -0.49328217
H -1.603866 -0.003548304 1.4855611
H -1.4373692 -1.7314131 -0.04609832
H 1.6626451 0.9124848 0.59725285
