11

N 0.30456778 1.5442425 1.198065
C -1.3588374 0.20129514 0.042970724
O 0.68069214 -0.76746774 -1.8658488
C 1.2017697 -1.064023 -0.8300378
C 0.017948968 0.50751543 0.5471399
O 0.99542993 -0.48859835 0.3751881
H -1.6791056 -0.78097683 0.40591037
H 1.9518411 -1.8578607 -0.7040654
H 1.2901632 1.5521696 1.4605485
H -2.034909 0.9677699 0.41974553
H -1.3695604 0.1859344 -1.0496165
