11

N 0.27801025 -2.128651 -0.060106
C 0.22199346 -0.0147727765 1.085909
O 0.8449962 1.6578285 -0.33236492
C 0.12413579 -0.8769426 -0.12077692
C -0.27726683 1.1996686 -0.6885476
O -0.2623025 -0.16570623 -1.2019081
H -0.94282186 1.8022089 -1.3230103
H 1.1734935 0.42003265 1.3507507
H 0.1573665 -2.5588517 -0.9737321
H -0.91726124 1.000943 0.33775514
H -0.4003432 -0.3357574 1.9260314
