11

C -1.1336888 1.1450696 0.60390663
C -0.2204671 0.02942887 0.20895141
C 0.7618777 -0.015536674 -0.7469691
N 1.2471231 -1.2770187 -0.6555358
N 0.6155698 -1.9761372 0.28953505
N -0.26928625 -1.1949271 0.81317294
H -2.1807265 0.8588214 0.45980465
H -0.9361046 2.0384386 0.0051008654
H -1.0024109 1.402009 1.6583879
H 1.1377001 0.71137786 -1.4508467
H 1.9804134 -1.7215258 -1.1855078
