11

C -1.0652968 -0.322693 1.0073024
N -0.11901139 -0.06839155 -1.2672138
C -0.21572523 0.5092759 0.054106772
N 1.1577585 0.62721264 0.5611605
C 1.1286513 -0.23070696 -1.4307611
N 1.9404607 0.19423455 -0.30561757
H -1.0801784 0.14171031 1.9958322
H -2.0859993 -0.39506498 0.6256513
H -0.6499822 -1.3307526 1.097252
H 1.6090239 -0.65046376 -2.308202
H -0.6197012 1.5256394 -0.029510425
