9

O -1.2850854 -0.5806905 -1.2288147
C 0.3255805 -1.3797282 0.37950525
C 0.41699308 0.7270035 1.1951585
O 0.65517366 -0.65973914 1.4354228
C -0.061945774 -0.30676064 -0.63346976
N -0.020013347 0.99920726 0.055754073
H 0.7771364 -0.2922031 -1.3582611
H -1.4494648 0.115915515 -1.8760741
H 0.6416257 1.3769956 2.0307791
