9

O 1.0075463 -0.9433284 -1.5009243
C 0.30949268 -0.34865588 -0.5201158
C -0.9422755 -0.6225075 -0.079296246
O -1.1993899 0.2649695 0.93971145
C -0.09061172 1.0049292 1.0376726
N 0.8451811 0.6943658 0.20140967
H 1.8675807 -0.50336105 -1.539528
H -1.7181458 -1.326383 -0.32943812
H -0.0793777 1.7799712 1.7905086
