9

O 0.48854434 -1.578837 0.15098147
C -0.461765 -0.95649415 0.95115584
C 0.8540121 -0.75059783 -0.86276114
O -1.4310035 1.278787 0.5196588
C -0.46263078 0.35590744 0.3365776
N 0.33875084 0.4150409 -0.8384036
H 0.2837581 0.30990782 1.2890605
H 1.5600303 -1.1461965 -1.5810807
H -1.1696965 2.0724826 0.0348113
