12

N 0.18375215 -0.517205 0.91900396
C -1.1160082 -0.8875044 0.30944464
N -0.041717563 0.34685212 -1.150765
C -1.241007 -0.1978685 -1.0575148
O -2.1989856 -0.7017008 1.1601388
C 0.77861786 0.14389539 0.017343007
N 2.0609617 0.61896265 0.0050128065
H 2.2210894 1.4662592 -0.5154489
H -2.3452084 0.24708378 1.2589314
H -1.086563 -1.9690567 0.103324205
H 0.27537358 0.86584735 -1.9586365
H 2.5096953 0.5844349 0.90916663
