11

O -1.487708 0.4600165 1.4130644
C 0.5513001 1.4376951 0.13345969
C 0.1341112 -0.44775197 -0.29873052
O 1.1282805 0.4386085 -0.7622249
C -0.45960918 0.39843333 0.53911424
N -0.012090677 -1.7675049 -0.7114479
H -1.9338784 -0.3962654 1.4224865
H 0.8038935 -2.3291163 -0.48459455
H 1.280148 1.7450907 0.8901351
H -0.19054274 -1.8395362 -1.7089754
H 0.18609565 2.3003306 -0.4322867
