9

O -1.4158205 -1.502048 0.7589881
C -0.540817 -0.64190036 0.28680927
N 0.66957146 -0.98247343 -0.36231133
N 0.39969295 1.2515546 -0.5632975
N 1.1190295 0.1508897 -0.7896491
C -0.65534776 0.79712266 0.079083554
H -0.17254667 -0.74876076 1.3689469
H 2.027947 0.22393334 -1.2241151
H -1.4317089 1.4516824 0.4455453
