11

N -0.06995643 -1.6384164 0.13088703
C 0.20596093 -0.5757145 0.93069464
O 0.7912352 -0.6266462 1.993041
C -0.24805765 0.7455223 0.35926023
C 0.25698286 1.1935192 -0.941967
O -1.0688404 0.69748324 -0.8024685
H -0.73193944 -1.5265793 -0.6200912
H 0.12702097 -2.5621188 0.48721883
H -0.5262751 1.4855033 1.1072956
H 0.33349133 2.2619398 -1.1443781
H 0.9303778 0.54550743 -1.499493
