11

N -0.91879797 -1.2675538 0.13322148
C -0.9838049 -0.025829587 -0.42542133
O 1.4640785 -0.11715216 -0.28014007
C 0.94244665 1.1371225 0.87191135
C 0.31653085 0.7508544 -0.42034468
O -2.003441 0.48986834 -0.83944726
H -1.7545266 -1.8327616 0.09496337
H 0.37171727 1.4387052 -1.2613506
H -0.026672745 -1.7189415 0.25832656
H 0.47985926 0.5485848 1.6791471
H 2.1126106 0.5971035 0.1891342
