11

N -0.76454 0.7414916 1.1799563
C 1.3096354 -1.1773992 -0.4428223
O -0.49775514 -1.2726609 -0.56558365
C 0.35203648 -0.09578698 -0.81024307
C 0.029581334 1.0477105 0.122916214
O 0.524139 2.143169 -0.06966425
H -1.1741718 -0.16960984 1.2848169
H 1.3673308 -1.1256945 0.6631748
H -0.9466436 1.4606845 1.862525
H 0.3209338 0.24551034 -1.8455968
H -0.5205464 -1.7974144 -1.3794792
