11

N -0.79268400 1.15979685 0.74374145
C 1.16921864 -1.37855610 0.17325197
O -0.60189727 -1.33347287 -0.21651931
C 0.16646683 1.02146916 -0.20632571
C 0.43510462 -0.39150663 -0.66858451
O 0.83643570 1.93858762 -0.64420616
H -0.59672517 -2.09266366 -0.81811238
H 1.09169895 -0.97049401 1.20121488
H -0.95358908 2.07805118 1.12743236
H -1.34115398 0.37859954 1.05648931
H 0.58712483 -0.40981102 -1.74838236
