11

N -0.15988679 -0.71404024 -1.27758043
C -0.98245595 -0.68831389 -0.06853630
C 1.18567816 -1.11498804 -1.03819725
N 1.69021707 -0.00795237 -0.63657182
C -0.47803408 0.49795573 0.31083288
N -0.64632388 1.50457527 1.22063434
N 0.36660733 0.60227167 -0.84892552
H 1.65128920 -2.06957797 -1.24718635
H -1.77591013 -1.37609421 0.18219640
H -0.97937463 1.21271943 2.12733781
H 0.12819363 2.15344471 1.27599636
