11

N 0.28191718 0.67529935 1.3469497
C 1.2159282 0.9564265 0.41239256
C -0.62625784 -0.2050505 0.7743319
N -0.6580533 -1.2203496 -1.5135508
C -0.165681 -0.38902384 -0.5041731
N 0.9764544 0.3368041 -0.7202793
H 0.2545114 1.0269465 2.2884052
H -1.4633849 -0.60631186 1.3235126
H 2.0493197 1.6186006 0.60244995
H -1.662934 -1.1879693 -1.6214907
H -0.20182006 -1.0053722 -2.3885481
