10

O 0.2146657 2.2128742 0.38956875
C 0.11808159 0.8841324 0.1611221
C -1.0024203 0.1943278 -0.21292865
N -0.5698609 -1.1185265 -0.31129038
C 0.7443296 -1.1405668 0.00062583876
N 1.195098 0.06006349 0.29246277
H 1.1293988 2.3761632 0.6535117
H -2.02018 0.49001122 -0.40911973
H -1.1376424 -1.9088547 -0.5675201
H 1.32853 -2.0496242 0.0035678302
