10

O -1.72229032 1.06419525 -0.25728174
C 0.67667977 0.61809493 0.26214685
C -0.59693566 0.33598655 -0.09444517
N -0.65249701 -1.02106996 -0.32154717
C 0.54317012 -1.66725130 -0.13002971
N 1.32560108 -0.62026070 0.22684718
H 1.15971647 1.54733438 0.52356668
H -1.53673382 1.98745024 -0.05151148
H -1.49609820 -1.49692373 -0.60272709
H 2.29938765 -0.74755556 0.44498176
