9

O 2.02952858 0.30692664 -0.75971166
C 0.81049788 0.12466108 -0.27287007
N -0.26987219 -0.08231599 -1.21504069
N 0.47146777 0.10855154 0.94853970
C -0.94421648 -0.12598780 0.87745372
N -1.30688875 -0.23183552 -0.54379272
H 1.97540794 0.26455487 -1.72703112
H -1.52799272 0.68998990 1.31514646
H -1.23793201 -1.05454492 1.37730633
