9

O -1.1570772 -1.2869885 -1.0821838
C -0.37870035 -0.47514114 -0.34568414
C 0.47753578 -0.79140556 0.65588963
O 1.029896 0.39423713 1.0842476
C 0.46961322 1.3328642 0.31454635
N -0.37546477 0.8869993 -0.55551314
H -1.6300973 -0.7245381 -1.7108873
H 0.7960377 -1.6934777 1.15017
H 0.768257 2.3574507 0.48941517
