9

O 0.37654966 1.1009401 -1.9030434
C -0.73070824 -0.69709814 0.80403984
C 1.5651256 0.19990544 -0.09704384
O 0.5026338 -0.8441781 1.3827016
C 0.40145946 0.38669437 -0.75490296
N -0.8391212 -0.102774136 -0.30694476
H -0.540936 1.10776 -2.2068322
H -1.5591291 -1.1630623 1.3327125
H 0.8241262 0.011812811 1.7493128
