10

O -0.034886688 -1.5655315 -1.6794114
C -0.03271055 -0.73061126 -0.80627984
N -0.63442874 0.49074972 -0.7385312
C 0.27761465 0.38386336 1.3904132
C -0.41564077 1.1283972 0.49170277
N 0.6153692 -0.82520676 0.46283123
H -1.2062402 0.8299953 -1.4969003
H 1.440139 -0.09370721 0.87420994
H -0.8084696 2.1239722 0.65069413
H 0.7992537 -1.7419207 0.8512715
