10

O -0.36342607 0.77520741 2.05087789
C -0.17358557 -1.03679666 -1.14421977
N 0.60473039 0.91857693 -0.06886235
C 0.56698408 0.07938384 -1.24737562
C -0.12450746 0.41171961 0.92728110
N -0.66876498 -0.85938456 0.31907082
H -1.68913379 -0.83995699 0.34434452
H 1.13181677 0.42003707 -2.10415618
H 1.10014169 1.79013341 0.03788721
H -0.38425491 -1.65891974 0.88515265
