11

C -0.53190064 -1.0794033 -1.4115201
C -0.0180214 -0.25216013 -0.2855366
N 1.159096 -0.2615098 0.25066096
C 1.0905219 0.6940167 1.2548022
C -0.1432228 1.2346414 1.2663866
O -0.87077385 0.63696456 0.27971375
H -1.4247516 -1.6360085 -1.1118658
H 0.244101 -1.7845693 -1.7156848
H -0.79980195 -0.45484188 -2.2698457
H 1.937167 0.91448617 1.8894914
H -0.64241374 1.9883839 1.8533978
