11

C 0.81190298 -1.75676581 -0.11941124
C -0.44457651 1.31509481 -0.21479498
N 0.59757987 0.67871499 -0.22357837
C 0.90864300 -0.43835912 0.60560031
C -1.53294628 2.03691928 -0.27729655
O 1.28403934 -0.28431887 1.73560283
H -0.23159804 -1.95125154 -0.39284244
H 1.39692614 -1.71526157 -1.04161248
H -2.29235565 1.81030241 -1.01694855
H 1.17908002 -2.55254613 0.52897814
H -1.67669495 2.85747136 0.41630302
