11

C 0.3522044 1.2818362 -0.45399073
C -0.028792502 2.2234714 -1.2771859
N 0.78382635 0.413047 0.28766564
C 0.0050867065 -0.48864952 1.0703917
C -0.057147697 -1.8765581 0.4847013
O -0.46284634 -0.14892173 2.122618
H 0.9537642 -2.2346313 0.27429566
H -0.09595783 2.0203688 -2.3399093
H -0.2836003 3.2048013 -0.893631
H -0.6081866 -1.8524349 -0.46253568
H -0.55835027 -2.542329 1.1875805
