11

N -1.0129671 0.1631509 -1.6140777
C 0.9965923 -0.6872484 0.798273
C -0.49275857 -0.25358975 -0.46653357
C 0.5526356 0.7034868 0.29378733
C -0.8704402 0.8273613 0.36349645
O 0.019429797 -1.4345216 0.0529539
H 2.0021589 -0.93681586 0.45003176
H 0.89264035 -0.87000436 1.8695288
H -1.6905156 -0.51311463 -1.9620942
H -1.6483254 1.5695614 0.3200232
H 1.2515502 1.4317342 -0.10538908
