11

N 1.9159243 0.6214201 -1.2080488
C 0.88777477 0.26786354 -0.56511045
C 0.053688705 1.1217775 0.3042795
C -0.9335936 0.38325137 0.7996072
C -0.8057274 -1.0201534 0.27825084
O 0.35075718 -0.99156016 -0.5599367
H 2.3058765 -0.15921953 -1.7349161
H 0.27023274 2.1695771 0.46149024
H -1.7244138 0.6939683 1.4708691
H -1.6704009 -1.330528 -0.32013312
H -0.65011865 -1.7563965 1.0736486
