10

O 1.4480529 1.5389142 -1.2880106
C 0.85438824 0.5624685 -0.87580097
C 0.61726725 0.37997928 0.5550779
O -1.5657803 0.35963753 -0.7128552
C -0.09003297 -0.73925 1.0272778
O -1.192158 -1.1224341 0.63556546
H -2.3285742 -0.24026653 -0.7721115
H 1.3131114 0.8973022 1.2124552
H 0.41270414 -1.3869104 1.765594
H 0.53102154 -0.24944095 -1.5471926
