11

N 1.6153934 -1.6015137 0.6424737
C 0.7584078 -0.73648936 0.30637407
C 0.8561449 0.67090064 0.736782
N 0.022186846 1.5906703 0.42764887
C -1.0542861 1.2062825 -0.37732232
C -1.2022098 -0.050194457 -0.8015681
O -0.32792827 -1.0397806 -0.48726255
H 1.3940316 -2.518397 0.25785202
H 1.7134203 0.9126091 1.3623683
H -1.7643913 1.9782547 -0.6415762
H -2.0107691 -0.41234162 -1.4257698
