11

N 0.51086841 -2.29340613 -0.28890487
C -0.30119153 -1.39948906 -0.56803236
C 0.96892332 1.21473950 0.96496554
N -0.57689142 0.04137057 -0.37372899
C -0.22864350 1.19527442 0.15724584
C -1.38728886 -0.71104380 -1.09684579
O 1.66823504 0.23736302 1.18308224
H 1.25686733 -1.94579467 0.31768473
H 1.22970024 2.20168665 1.39282387
H -0.84520737 2.06789510 -0.02643699
H -2.29537137 -0.60859510 -1.66185324
