11

N 0.99073106 -0.8484347 -1.5277147
C 0.24978462 -0.22236915 -0.55747896
C 0.5891646 -0.27517185 0.8135685
N -0.11868192 0.38171315 1.7023183
C -1.1513469 1.0882808 1.2076776
N -1.5089215 1.1609331 -0.06139448
N -0.7983563 0.4841055 -0.96164423
H 1.5282769 -1.6580162 -1.2663137
H 0.539563 -0.9040833 -2.4286168
H 1.4365029 -0.85902935 1.167791
H -1.7567167 1.6520721 1.9118071
