10

N 0.60387313 -0.8072159 1.5040925
C 0.0118779875 0.16933948 0.7431503
O -0.4069504 1.215885 1.1877455
N -0.09944902 -0.17576121 -0.6066429
C -0.6380625 0.6736049 -1.5591557
O -0.7674325 0.3454321 -2.712946
H 0.833601 -0.5150926 2.4421353
H 1.2499677 -1.4535251 1.0779511
H 0.13268109 -1.103382 -0.9330553
H -0.9201066 1.6507151 -1.1432742
