10

N -1.0972118 -1.5325164 -0.15841234
C 0.9133607 1.5102613 0.17041604
O 0.84137297 2.6971285 0.3710804
N -0.21400298 0.69228 0.13005164
C -0.14042583 -0.6505437 -0.1013633
O 0.97513515 -1.2618413 -0.307925
H 1.8434393 0.95021933 0.0026460553
H -2.0848024 -1.3653581 -0.021785
H 0.070695505 -2.1778052 -0.36850792
H -1.1075606 1.1381754 0.2837994
