10

C -0.9336651 0.37887046 2.3666651
C -0.47605342 0.21001415 1.2658077
C 0.06577948 0.007236118 -0.034249227
C 1.3412722 0.11898193 -0.54971874
N 1.3050796 -0.1977701 -1.8673058
N 0.08854411 -0.49903065 -2.2015262
N -0.6649137 -0.37959442 -1.1107167
H -1.3293462 0.53084105 3.3483841
H 2.2571037 0.4024925 -0.054877847
H -1.6538006 -0.572041 -1.162463
