12

O -0.5433879 0.61348253 -1.6998477
C 0.1873443 1.1726501 -0.6346627
C 0.3647294 0.16390142 0.4878065
C -0.71372396 -0.7851191 0.8368736
N 0.42062598 -1.2195023 0.018060384
H -0.23692732 -0.30390635 -1.7617636
H -0.36399573 2.0472713 -0.27343705
H 1.182167 1.5132552 -0.9627761
H 1.0484239 0.45846397 1.2822243
H -1.6593611 -0.7347279 0.3050337
H -0.7719062 -1.1480252 1.8617536
H 1.0860115 -1.7777438 0.54073495
