12

O 1.48436698 1.02670434 0.27090452
C -1.26859557 0.63254346 -1.66961514
C 0.99772100 -0.20316998 0.76043344
C -0.50106404 -0.35912164 0.52352071
N -0.78322362 -0.33121250 -0.92076700
H -0.49351869 -1.17781468 -1.39964838
H -1.53239079 1.44533158 -0.95822377
H 1.28115179 1.06697863 -0.67141498
H 1.19982659 -0.21590321 1.83608728
H -1.04717665 0.47520284 0.97115170
H -0.86559969 -1.30114156 0.94901328
H 1.52850305 -1.05839742 0.30855844
