12

O -0.6245923 -0.4307282 -1.6245376
C 0.09182075 1.7190411 0.4460013
C -0.5248749 -1.0561205 -0.37137896
C 0.087059 -0.1277418 0.6759496
N 1.0964794 0.76289904 0.082693554
H 0.24122538 -0.016183848 -1.7679983
H -0.62213504 1.6681688 -0.40525228
H 0.107011825 -1.9573824 -0.42006123
H 0.4830894 -0.62685865 1.5647613
H 1.8852612 0.84922355 0.7178803
H -1.5313804 -1.3669816 -0.076624125
H -0.6889643 0.5826645 1.1785666
