10

N -0.06679248 -0.36177438 -1.0198151
C 0.3566433 0.30178118 1.0698444
C -1.1093047 0.60287625 0.8266955
C 0.91605556 -0.3149274 -0.17961922
C -1.2836293 0.17845164 -0.4509759
H 0.4955796 -0.37674427 1.9228158
H 0.91692185 1.2108089 1.3281965
H 1.9039547 -0.67617697 -0.43328077
H -2.1490893 0.16957048 -1.1041467
H 0.019660613 -0.7338654 -1.9597145
