11

C 1.378551 -0.4159922 -0.063383006
C 0.07284152 0.29315388 -0.06950334
O -2.193005 0.5947956 -0.15767018
C -1.2649105 -0.27814698 -0.024613095
O 0.0136770895 1.5825951 -0.10080926
H 1.820189 -0.31394127 -1.0606657
H -1.3819019 -1.3455037 -0.26518914
H 2.0643961 0.0354674 0.6576401
H 1.2461599 -1.4780082 0.1567211
H -0.72867364 -0.34977794 1.1189646
H -1.0273237 1.6753579 -0.19149208
