11

C 1.1454026 -0.38698536 0.44942653
C -0.7431144 0.04758053 -1.1248556
O -1.0242262 0.3484418 1.2282062
C -0.10240984 0.4596131 0.18355817
O -1.8885914 -0.32918945 -1.1802475
H 1.8900633 -0.2614262 -0.34415928
H 0.2053653 1.5130166 0.05987635
H -0.103956684 0.10959053 -2.0277755
H -1.8510695 0.027859662 0.8352159
H 0.877618 -1.4458581 0.5227385
H 1.594919 -0.08264301 1.3980161
