9

O 1.57466558 0.46215216 -0.70320233
C 0.67676800 -0.57400900 -0.81226983
C -0.30749547 -0.34760158 0.06822617
O -1.38370226 -1.08387821 0.42149046
C 1.20361065 1.37457614 0.22873059
N 0.03773472 0.85096975 0.69014029
H 0.87904395 -1.35478622 -1.52689581
H -2.19582952 -0.60709989 0.19441956
H -0.48479568 1.27967682 1.43936086
