9

O 1.0047626 -0.94756013 -1.5012422
C 0.30817145 -0.349469 -0.52055293
C -0.94187266 -0.62178093 -0.078611486
O -1.1962289 0.26669466 0.94070005
C -0.08837493 1.0050517 1.0377991
N 0.84588444 0.6935934 0.19982299
H 1.8607653 -0.49999994 -1.5436743
H -1.7185892 -1.324786 -0.32745346
H -0.07451812 1.7782562 1.7932122
