9

O -1.1598194 -1.1835109 0.3213369
C -1.0983138 -0.021371571 -0.39938423
C 0.12446344 0.518709 -0.21677649
O 0.66749674 1.6192313 -0.75865483
C -0.01769658 -1.3205833 1.0418108
N 0.79595375 -0.2555836 0.7227245
H 1.5014461 1.7935038 -0.3027499
H 1.1617738 -1.4369528 0.53868496
H -1.9753044 0.28655824 -0.9469916
