11

C -0.28178436 0.47531354 -0.08813038
N 0.85803413 0.5612137 -1.0059711
C -1.270071 -0.59659845 -0.5337981
N 1.9117 0.36938158 -0.36152467
C 1.5214031 0.15044534 1.0156846
N 0.27029884 0.20895569 1.2208841
H -0.7631744 1.4616144 -0.084179156
H 2.2837677 -0.049117003 1.7612456
H -1.6381826 -0.37098867 -1.5373143
H -2.112858 -0.63571197 0.1597635
H -0.7791329 -1.5745082 -0.54666036
