11

C 0.11627265 0.30538946 -0.9705082
N -1.2060444 0.51773167 -1.0797827
C 0.80150086 0.68054503 0.7476494
N 0.41579914 -0.8799022 -0.2877715
C -0.8245916 -1.2845596 0.035549257
N -1.7888678 -0.49010468 -0.42900512
H 1.3324475 1.5612577 0.39503106
H 0.83168143 0.78409874 -1.6302341
H 1.4708368 0.059891425 1.3409976
H -1.0215818 -2.173366 0.62046
H -0.12745282 0.9190184 1.2576144
