13

C 1.9843713 0.4992545 0.20199691
N 0.5669407 0.32638547 0.45555544
C -0.2250946 -0.45417175 -0.25549123
O -2.2593253 0.4469604 0.66397446
C -1.6694572 -0.5266527 -0.18887194
O 0.16922255 -1.1825595 -1.2408227
H 2.2378397 1.5628525 0.19184351
H -1.9644365 -1.5182123 0.16950868
H 2.204057 0.060624365 -0.77071166
H 0.09599132 0.84697336 1.1817272
H -1.0248829 -1.1364201 -1.4649466
H -2.6982296 1.0812093 0.09064456
H 2.5830033 -0.006243484 0.96559346
