13

C 0.58390945 -1.5834248 -1.1655878
N 0.2278777 -0.64371055 -0.12537868
C -0.051381342 0.66045606 -0.37983835
O -0.07080713 1.1704197 -1.4846021
C -0.33724868 1.4763985 0.8770148
O -0.564244 0.69356304 2.0362346
H -0.11140593 -2.4297972 -1.1814526
H 0.5329956 -1.0571162 -2.119225
H 1.6015143 -1.9623342 -1.0207156
H 0.27134696 -0.91247463 0.8463956
H -1.1683412 2.1555583 0.6512735
H 0.5456599 2.0921607 1.0823829
H -1.4598758 0.34030125 1.9834983
