10

N 0.22634438 1.7691991 0.392813
C -0.20176207 0.47958648 0.16361232
N -1.4008579 0.048567005 0.36179048
O -1.336491 -1.3410302 0.10641745
C -0.08173532 -1.6997997 -0.25937995
O 0.2851716 -2.8120294 -0.5201789
N 0.6423778 -0.5137786 -0.25866696
H 0.7540236 2.17491 -0.3678021
H -0.5332898 2.3704581 0.6814943
H 1.6462185 -0.47608262 -0.30009967
