12

N 2.2028868 -0.6012696 -1.116863
C -0.7799569 1.7834667 1.5459832
C -0.27131793 -1.5095661 -0.7227253
C 0.21380074 0.6944115 -0.33202145
N -1.6169283 2.4324658 2.0214581
C 1.0708727 -0.34349284 -0.8097529
N 0.17284985 1.0102009 0.99639153
H -0.47615588 1.2227434 -0.98285097
H -0.4778319 -1.7419351 -1.7688763
H -1.2090164 -1.2962701 -0.19747871
H 0.9085872 0.6715165 1.5976616
H 0.26220992 -2.3222713 -0.23092605
