12

N -0.43613163 -1.6676917 2.3244672
C -0.34441715 -0.77080274 1.6046358
C -0.25388038 0.36230898 0.6611797
C 1.1532031 0.47963592 -0.007316436
N 1.0052207 -0.08314192 -1.3480376
C -0.23975718 -0.24160749 -1.53661
N -1.0987711 0.15112844 -0.5120535
H -0.5359884 1.2753922 1.1958003
H 1.4519826 1.5295515 -0.08350523
H 1.9252615 -0.053478003 0.55194145
H -0.6670259 -0.6209191 -2.4614682
H -1.9596963 -0.3603759 -0.38903338
