10

N -1.2840629 -1.3340341 -0.2683749
C 0.37393805 0.37332904 0.9612696
N 0.89693576 1.4978629 0.21120338
N 0.9665474 -0.9899866 0.69386625
N 0.88329643 1.3134205 -1.013415
C -0.21747689 -0.7617844 0.31157833
H -1.1095713 -2.173324 -0.801423
H 1.3015049 2.1478803 -1.4423832
H -1.9841057 -0.71614 -0.6459204
H 0.1729942 0.6427758 1.9935988
