10

N 0.91572817 1.49812708 0.09874878
C 0.83171953 0.17862541 0.69251661
N 0.25831854 1.60358299 -0.94556287
N 1.15904051 -1.00990139 -0.18017174
N -1.27087136 -1.36982629 0.09461146
C -0.04320099 -0.83279943 0.17108896
H 1.20809012 0.17607477 1.71085949
H 0.41307993 2.55636876 -1.29696490
H -1.42424377 -2.03699946 -0.64724566
H -2.04766064 -0.76325228 0.30212056
