11

O -1.2768168 -0.17681198 1.9280927
N -1.1649048 -0.7718784 0.6745067
C -0.23759274 -0.23398578 0.007984079
C 0.29629293 -0.46640748 -1.3778349
O 1.2568613 0.5907103 -1.173632
C 0.79031366 0.85767317 0.1641168
H -2.0038261 -0.6681266 2.3303003
H -0.39263186 -0.24629243 -2.2001095
H 0.7768305 -1.4356579 -1.5485584
H 1.5623965 0.6780112 0.92067283
H 0.3930772 1.8727661 0.27446154
