11

O 0.23926412 1.2181882 1.4950428
N 0.0319018 -0.9212262 -1.2250091
C -0.66350925 0.30367798 0.9827862
C 1.0840024 0.96512145 0.35280055
O -0.8428766 -1.8895774 -0.744828
C -0.032225586 0.09928794 -0.24131265
H 1.3691055 1.8881453 -0.15773265
H 1.956319 0.37326592 0.63527143
H -0.6410262 0.49317253 -1.1381135
H -1.0178438 -2.4373605 -1.5231153
H -1.483111 -0.09269497 1.56421
