11

C 0.14815965 0.12339753 -0.00672038
N -1.87336530 -0.06230199 -0.46647740
C -0.31113852 -1.16319885 0.32876089
N -1.60197567 -1.25375151 0.02509856
C 1.50994605 0.72526401 0.13844426
N -0.87710388 0.80320225 -0.51377184
H 1.81376676 0.76926205 1.19025908
H 1.50618754 1.74013394 -0.26251949
H -2.79753675 0.17591257 -0.79332541
H 0.21996760 -1.99904984 0.76142505
H 2.26309235 0.14112957 -0.40117323
