11

C -0.11392422 -0.041245688 0.026461408
N 0.02540234 -0.8959807 -1.0023816
C -0.85029304 -0.3990634 1.275272
N 0.781595 -0.20343925 -1.9905652
C 0.49754572 1.1484152 -0.35265377
N 1.0827435 0.99820626 -1.5440131
H 1.1601766 -1.2172995 -1.3834918
H -0.50435054 -1.3607625 1.6662647
H 0.54206115 2.0873973 0.18527457
H -0.6963444 0.36618206 2.0405622
H -1.9246122 -0.48240966 1.0792702
