11

C -0.93666166 1.3025577 0.2932941
N -0.08804146 0.16066107 0.027256321
C -0.3784905 -1.1529427 0.009589801
N 0.69675 -1.8593854 -0.27414697
C 1.6401556 -0.89659613 -0.42268348
N 1.218152 0.34001502 -0.24954972
H -0.57757187 1.8303839 1.1791556
H -0.9194667 1.9791228 -0.56361276
H -1.9572302 0.95410407 0.46401218
H -1.3683524 -1.5438919 0.20433815
H 2.670757 -1.1140287 -0.66765314
