10

C 1.0981425 -1.4227066 -0.79187244
C -0.55336 -0.26849058 0.37465757
O 0.7007735 -1.0047545 0.37355128
C -0.3292109 1.1656466 -0.04900928
H 2.072215 -1.9120971 -0.53619224
H -1.2712107 1.7212503 0.012668751
H -1.2334187 -0.7909669 -0.30292866
H -0.9152153 -0.34502143 1.4020215
H 0.027590604 1.2018919 -1.082404
H 0.40369412 1.6552488 0.59950745
