10

O 1.28172046 -1.33853502 0.26087488
C -1.20088449 0.73254386 0.15590500
N 0.10053559 0.76947794 0.85163052
C -0.96294945 -0.33949716 -0.59591341
C 0.45643376 -0.31062504 -0.06162591
N 1.04288598 0.96911154 -0.33808601
H -1.97891523 1.47753415 0.26820180
H 0.76958919 -2.01331701 0.72334274
H 1.96715021 0.95052972 0.10011225
H -1.47556582 -0.89722293 -1.36444171
