10

O 0.10535493 -1.7553437 -0.73281395
C -0.70077896 0.99187285 0.2807511
N -0.7875575 -0.016208336 1.229565
C 0.360954 -0.6406454 -0.085255966
C 0.2625667 0.7398121 -0.64812165
N 0.5839068 -0.7240701 1.2267019
H 1.2770224 -0.06143856 1.5599663
H -0.26799974 -1.5459408 -1.597644
H 0.61195534 1.2258525 -1.5436344
H -1.4454241 1.7861093 0.31048572
