10

N 0.80341446 -0.38939604 0.43288094
C 1.1539268 0.8484519 0.6166033
C -0.42262593 -0.4060365 -0.2549607
O 0.26921713 1.6896243 0.122757465
C -0.7630389 0.91034573 -0.43374595
N -0.6292923 -1.7173569 -0.41611332
H -1.5696392 1.456728 -0.8892153
H -1.5497717 -2.0403905 -0.66232806
H 0.6715672 -1.5878583 0.37874886
H 2.0362422 1.235888 1.1053725
