10

N -0.605353 -1.002456 0.9697316
C 0.30683565 0.59314364 -0.3882568
C 0.9415607 -0.6738833 -0.5203563
O 0.37920418 -1.6270195 0.20764412
C -0.7305031 0.27423188 0.5352321
N 0.6946537 1.6815798 -1.0018648
H 0.07501058 2.452562 -0.7537317
H -1.4821602 0.9192628 0.9697701
H 1.8000386 -0.97598857 -1.1029948
H -1.3792871 -1.6414326 1.0848264
