11

O 1.4588299 1.8561893 0.16024877
C 0.7747659 0.87830555 0.063899375
C -0.8585916 -0.59020406 1.2664809
N -0.4150981 -0.83192873 -0.15859975
C -0.22373031 0.3813201 -1.0045394
C 0.57631356 -0.37815523 0.87234044
H -1.4163677 0.35817954 1.2438942
H -0.40751058 -1.76374 -0.54842824
H 1.3816876 -1.0108638 1.2330977
H 0.28594598 0.17962012 -1.9521
H -1.1562448 0.92127717 -1.1762937
