11

O -0.24196228 0.57058589 2.28367885
C -1.24684313 -0.47817666 -0.95195772
C -0.53925576 -0.92604628 0.29623983
N 0.25526074 -0.34880206 -0.83829875
C -0.07983228 0.22984403 1.14741645
C 0.75894449 0.79253940 -0.02107749
H -0.47421512 -1.96956475 0.58938178
H 0.86898509 -0.90817148 -1.41340251
H 1.82902259 0.73385975 0.20211176
H 0.50937611 1.76063739 -0.45827123
H -1.63948065 0.54329475 -0.83582103
