10

O -1.4287573 -1.8488646 -2.0485592
C -0.6196596 -1.2194315 -1.4105295
O 1.2809274 2.0252202 1.0267519
C 0.9543388 0.71583265 1.1670631
C -0.9280083 -0.60663855 -0.093934424
C -0.006703016 0.06794219 0.55356413
H 0.4136493 -1.0529777 -1.7745519
H 0.67391056 2.4485388 0.40583166
H 1.598013 0.21652108 1.8848841
H -1.9377108 -0.74614257 0.28948003
