10

O -1.09824663 -2.89680312 0.24213287
C -0.51932414 -1.89253955 -0.09581751
O 0.41379359 2.42037090 -0.87583736
C 0.22683719 0.37441625 0.34561787
C -0.41540873 -0.68963407 0.76803242
C 0.89478639 1.40390660 -0.11670011
H -0.02876283 -1.80278090 -1.08538279
H -0.89296904 -0.74279125 1.74531315
H 1.95262795 1.52694941 0.09478797
H -0.53333362 2.29890603 -1.02214651
