10

O 0.22187717 1.82039540 -0.68112629
C -0.53185107 -0.43103046 -1.38023803
N -0.92856532 -1.34981648 -0.54943721
C -0.41358129 -1.13644765 0.76064466
C 0.36758844 -0.06749806 0.86008333
N 0.43590679 0.44502413 -0.50184615
H 1.36442266 0.26796661 -0.90355248
H -0.69485313 -1.80656358 1.56490626
H -0.73518868 1.85594979 -0.83183845
H 0.91424453 0.40202033 1.66240425
