10

O 1.241184 0.50695676 -1.7550246
C 0.47192034 0.08542301 -0.73652697
N -0.063709065 -1.0908533 -0.6069828
C -0.7503769 -1.0222644 0.5924426
C -0.6126513 0.20348448 1.1644975
N 0.19131143 0.92446303 0.2856744
H 1.3055854 -0.24519776 -2.3602424
H -1.3034298 -1.8727419 0.964875
H -0.9892469 0.6353858 2.0788386
H 0.5094129 1.8753443 0.37244856
