10

O -1.0965352 0.96584314 -1.0701503
C 0.60713285 0.012654724 1.1555762
N -0.32457972 -0.57401526 -0.7126456
C -1.4208039 -0.08265486 0.22109435
C 0.8800481 -0.54169196 -0.09785464
N -0.6648381 0.34961417 1.3297163
H 1.3446325 0.17016217 1.9357224
H 1.7967019 -0.8656745 -0.5691468
H -0.5539647 -1.089559 -1.5490983
H -0.5677938 1.6553214 -0.6432134
