11

O -1.8339267 1.7187793 -0.22143076
N -1.4697152 0.38092583 -0.3076621
C 0.44561735 -1.3293236 -0.0832746
C -0.29478994 -0.022712141 -0.06975422
O 1.6440116 -0.636706 0.31603226
C 0.9853141 0.6482066 0.34450686
H 0.12194872 -2.0675702 0.6578777
H 0.9796426 1.0982509 1.3440512
H 1.3999957 1.3565238 -0.3825357
H 0.5435718 -1.8061312 -1.064408
H -2.5216699 0.6597568 -0.53340286
