11

O -1.2731798 -0.17702037 1.9337721
N -1.1666969 -0.76870346 0.67485243
C -0.2405212 -0.23155102 0.0072124135
C 0.29518005 -0.4680777 -1.3770024
O 1.2572862 0.586007 -1.1732332
C 0.7903495 0.85844207 0.16173403
H -2.0027528 -0.66555715 2.3332608
H -0.3921818 -0.24891497 -2.2012575
H 0.77466184 -1.4384894 -1.5477492
H 1.561335 0.6786643 0.919712
H 0.39651978 1.8752007 0.26869872
