11

O -1.80300793 0.05073605 -0.21215465
N 1.44451271 -0.41889088 0.37069273
C -1.02827962 -0.98057068 0.42961485
C 0.22394722 -0.20803803 0.13342023
O 2.23431244 0.62170396 -0.11515963
C -0.63945345 0.84164842 -0.52036956
H -1.28288021 -1.09011222 1.48932480
H -0.49472674 0.97226627 -1.59844548
H -1.12556706 -1.94742295 -0.07669826
H 3.12620276 0.34090499 0.12256413
H -0.65506026 1.81777506 -0.02278897
