12

C 1.4007702 -0.29153928 0.8816256
C 0.3365089 -0.5050762 -0.1869783
C -0.5906887 0.6928203 -0.31792215
O -0.22276066 1.8331052 -0.113817096
N -1.8691264 0.39615956 -0.6940697
H 2.1143925 -1.1203263 0.8903062
H 1.9418635 0.6399608 0.695508
H 0.9497857 -0.22077283 1.8765221
H -0.24560836 -1.4138969 0.0135869
H 0.810477 -0.6443907 -1.1668284
H -2.1412444 -0.531982 -0.96620536
H -2.48437 1.1659383 -0.9117277
