12

C -0.15079324 -0.688318 -0.38405493
C 1.1286684 -1.1406149 0.32320905
C -0.687886 0.5709563 0.06025313
O -1.3448967 0.39457604 1.1599656
N -0.67338216 1.7730359 -0.5231267
H -1.2730312 2.5064528 -0.17695653
H -0.09075861 1.9482813 -1.3217613
H -1.1811306 -0.7335537 0.7866723
H -0.107826576 -0.81945515 -1.4676672
H 1.078295 -0.9405377 1.4010224
H 2.039574 -0.65070647 -0.058294855
H 1.263168 -2.2201166 0.20073886
