11

N 0.39272052 -1.6841483 0.6413241
C -0.51748276 -0.9047885 1.4123086
C -0.6897783 0.37488475 1.0377871
C 0.111012526 0.7080809 -0.08281558
N 0.7980119 -1.0426618 -0.33004588
N -0.38842556 1.1866658 -1.2801254
H -1.393362 1.181424 -1.3297956
H 1.5172884 -1.5232103 -0.87281847
H 0.035062425 2.0256126 -1.6338545
H 1.0888497 1.117608 0.18895693
H -0.9538968 -1.4394668 2.2490788
