11

N 1.62938438 -0.88564490 -1.39713416
C -0.03036907 -1.54692953 -0.03804484
C -0.46756086 0.84667891 0.92217203
C -0.34107328 -0.36482761 0.42861970
N -0.95150053 1.96351764 0.25849101
N 1.22462944 -1.82017083 -0.68354902
H -1.40253075 1.76843803 -0.62118067
H 2.55076125 -1.17656795 -1.74780770
H -1.46959607 2.61145016 0.83117705
H -0.10062030 1.03600385 1.93160679
H -0.64152406 -2.43194795 0.11565028
