13

C 0.9264774 -1.2826803 0.40668812
C -0.515981 0.8101615 0.6412271
N -0.6470198 -0.6254159 -1.3208723
O -0.8707283 2.0330029 0.061978757
C 0.29832342 -0.092243284 -0.30521178
O -1.0045841 0.2295647 -2.1134434
H -1.3932409 0.2428914 0.99591136
H -1.1969141 1.8548934 -0.8310175
H 0.16038994 -1.8777729 0.9157503
H 1.0426142 0.53774446 -0.80808854
H 1.6533067 -0.94014144 1.1493195
H 1.4429803 -1.9325538 -0.30590525
H 0.10437618 1.0425496 1.5136638
