13

C -0.5478108 0.025993247 1.7042933
C 0.027956674 0.16848794 0.33048502
N 1.1401477 0.78908616 0.23756377
O 1.5605384 0.87422377 -1.1050848
C -0.71922666 -0.41662753 -0.85665745
O 0.06262672 -1.3108917 -1.609587
H 0.081436895 0.52813447 2.4411972
H -1.5560747 0.45497647 1.7445731
H -0.6352812 -1.0332861 1.9689044
H 2.4173865 1.3049173 -1.0250837
H -1.102119 0.41307497 -1.4712726
H -1.5838562 -0.9836936 -0.49491924
H 0.8542757 -0.8143954 -1.864412
