13

C -0.31800166 0.95707497 0.56271895
C 0.08277614 -1.56217755 0.47092869
N -0.32689113 -0.26790507 -1.54138004
O 0.11171925 2.20716215 0.10518494
C 0.31910573 -0.21767394 -0.20359155
O 0.02194799 0.65491598 -2.25812656
H -0.01782399 0.88560843 1.61380360
H -1.41503553 0.84817819 0.51983075
H 0.56476921 -1.58374414 1.45293309
H 1.38534362 0.00699246 -0.33165454
H 0.08659544 2.19405846 -0.86164471
H -0.98908759 -1.74585365 0.60337007
H 0.49458255 -2.37663629 -0.13237270
