11

N -0.17973821 -2.0156841 -1.3702171
C 0.30722222 0.4783889 1.1656587
C -0.17504145 -0.8150468 -0.86688375
C 0.009331828 -0.74950486 0.5936128
C -0.011285008 1.6488836 0.5162973
O -0.28174016 0.27275988 -1.502631
H 0.8721196 0.5180962 2.0967324
H 0.0015898846 -1.6869662 1.1422907
H 0.49218738 2.5733967 0.7836881
H -0.19127242 -1.946137 -2.38906
H -0.84337366 1.7218138 -0.16948803
