17

C -0.78613764 0.205742 -2.2065656
N -0.6348932 -0.49824142 -0.94876564
C 0.1167707 -0.00068673864 0.09441115
O 0.91825205 0.99472576 -0.32169127
N 0.12431766 -0.3994626 1.3054348
C 1.7923384 1.522993 0.66696566
C -0.7515568 -1.4960992 1.6589553
H 0.19721675 0.46932575 -2.6008868
H -1.271363 -0.46792865 -2.917588
H -1.420122 -1.0522406 -0.6560417
H 2.456445 0.7456395 1.0561079
H 2.369378 2.2965467 0.15574346
H -0.60315526 -1.729251 2.716507
H -0.538028 -2.4115624 1.0869644
H -1.3819247 1.1226197 -2.118157
H -1.8191879 -1.2540655 1.5266228
H 1.2316502 1.9519458 1.5019836
