17

C -0.62157294 2.39048114 -0.33487731
N -1.38017776 1.05129218 -0.07881277
C -0.66025549 0.08555929 0.77741684
O -0.89687806 0.11403477 1.96557578
N 0.23096878 -0.71424759 0.14228409
C 1.04922847 -1.59609596 0.95715175
C 0.54112072 -0.64522669 -1.28044433
H -2.22830016 1.28916904 0.42590651
H -0.35620482 2.69012336 0.69047799
H 0.31840019 2.03363109 -0.78968073
H -1.62422203 0.67044294 -0.99173388
H 0.94111111 -2.63121904 0.61714002
H 0.72299279 -1.51404806 1.99273839
H 2.10351286 -1.30343714 0.88063945
H -0.33230452 -0.35237366 -1.87709576
H 1.34564505 0.07282963 -1.47944603
H 0.84693506 -1.64091467 -1.61724014
