17

C -1.5310478 2.2382586 0.13890205
N -0.65959126 1.1801817 -0.344987
C -0.11220298 0.32024914 0.5905156
O -0.23034689 0.52054554 1.7922055
N 0.60365653 -0.73921996 0.08089569
C 1.0458626 -1.7859468 0.9814046
C 0.83240134 -0.9387169 -1.3355091
H -2.46552 1.859784 0.5734445
H -1.0088936 2.8054886 0.9125771
H -1.7642615 2.907651 -0.69246256
H -0.93320644 0.77252233 -1.2259033
H 0.5304505 -2.73422 0.77548784
H 0.8238249 -1.4726 2.0009844
H 2.1256492 -1.9503139 0.88096565
H 0.99483633 0.021998988 -1.832995
H 1.7411096 -1.5349272 -1.4637649
H 0.00727872 -1.4707345 -1.8317612
