17

C -1.5310259 2.2397401 0.1352862
N -0.66450995 1.1772571 -0.34016937
C -0.11146538 0.3181835 0.5941429
O -0.22283147 0.5237363 1.7949873
N 0.59942496 -0.7432785 0.08084331
C 1.0437826 -1.787402 0.9818764
C 0.8322369 -0.9378401 -1.3357695
H -2.4654467 1.8611544 0.56987095
H -1.0087726 2.8066058 0.910033
H -1.7626282 2.9090593 -0.69592583
H -0.93269235 0.77575856 -1.2258917
H 0.5270801 -2.7363067 0.7840619
H 0.8279193 -1.4721509 2.0029173
H 2.1223538 -1.9561211 0.87705684
H 0.9965261 0.0238203 -1.8320203
H 1.7408844 -1.5346259 -1.4656827
H 0.009164331 -1.4675908 -1.8356165
