17

C -0.9710992 1.4910476 -1.3757167
N -0.19060186 0.78590506 -0.37106004
C -0.7635307 -0.26419386 0.29019564
O -1.9027098 -0.6450909 0.12161833
N 0.07298665 -0.9307764 1.2216893
C 1.201203 1.186711 -0.21218722
C 0.14695635 -2.7120967 1.1786096
H 1.8904291 0.50035584 -0.7197549
H 1.1597058 -2.843918 0.77947253
H -1.0711793 2.5476668 -1.1029454
H -0.49556676 1.4222823 -2.3599277
H 1.3202282 2.1807492 -0.6503444
H -0.5878299 -2.8832328 0.38947883
H -1.9612329 1.0346992 -1.4157768
H -0.34057713 -1.5690401 1.9984162
H 1.0043782 -0.5730915 1.3843101
H 1.4884402 1.2720231 0.84392226
