10

N -0.18173853 -0.99305874 -1.6019241
C 0.10479702 1.0380985 1.4380407
O 0.6391926 -1.4642522 0.26986837
N -0.21987407 0.689075 0.12985222
C 0.056789752 -0.5378443 -0.40393934
O -0.14697337 2.123782 1.8972583
H 0.603805 0.22334862 1.9807627
H -0.6056141 -0.50406176 -2.3763502
H 0.43103343 -1.9693421 -0.9073393
H -0.68141764 1.3942554 -0.42622963
