11

C -1.6073774 -0.515425 -1.1867634
C -0.29582798 0.34498698 0.06761356
N -0.5035345 -0.0985938 1.3399822
C 1.1232777 0.34022054 -0.4374774
N -0.7696562 -1.3543259 -1.1689246
H 1.6214554 -0.6118689 -0.2409196
H 1.1426903 0.52955073 -1.511977
H -1.4650562 -0.051907666 1.6524601
H -0.07916294 -0.9907624 1.5568321
H 1.6606951 1.1454043 0.07837095
H -0.8275036 1.2627211 -0.14919724
