11

C -0.52440065 1.0418099 0.5435806
C -0.07672485 -0.047992323 -0.43175554
N 1.378991 -0.14308746 -0.45064455
C -0.72156954 -1.3469852 -0.10191122
N -1.1619514 -2.381261 0.1665428
H -1.6117055 1.1609364 0.5323395
H -0.22037801 0.7945324 1.5668794
H -0.05474155 1.9861768 0.25888053
H -0.4035024 0.2243971 -1.4411201
H 1.680856 -0.8571513 -1.1058667
H 1.715127 -0.43137527 0.46307537
