11

C 0.29286814 0.020677326 -0.33385387
C -0.26827225 1.1058449 0.5752251
N 1.0931332 -0.9016673 0.44948667
C 1.6908102 -1.6913078 1.0826395
N -0.7623163 -0.64588606 -1.0527116
H -1.3995293 -1.0911145 -0.39787847
H 0.53825074 1.6252278 1.0997916
H -0.382864 -1.3761139 -1.645441
H -0.9399689 0.6665099 1.3211074
H -0.83146507 1.8221079 -0.028695168
H 0.96935374 0.465722 -1.0696701
