13

C 0.06969111 1.0179801 -1.1452249
C 0.3087463 0.13612053 1.2762165
N -0.040109973 -1.4634771 -0.5545015
O 0.07924774 -0.9740388 2.0888147
C -0.12987097 -0.09849634 -0.15859322
O -1.3316721 -0.8062152 -0.2732837
H -0.46120054 1.9164339 -0.8154327
H -0.31763577 0.7349234 -2.1289954
H -0.0051144557 -1.5176905 -1.5731835
H -0.45844513 -1.594475 1.5799165
H 1.1337279 1.2601191 -1.2365384
H -0.22925206 1.0158905 1.6620258
H 1.3818879 0.37292558 1.2787801
