13

C -0.54860735 0.025056135 1.7049385
C 0.026256973 0.16993487 0.32762432
N 1.1383629 0.7907725 0.23386598
O 1.5631547 0.87170583 -1.1033857
C -0.719603 -0.41549793 -0.85876083
O 0.058615226 -1.3091667 -1.612538
H 0.08073399 0.53215134 2.4384212
H -1.5604903 0.4455974 1.7477784
H -0.62786585 -1.0349559 1.9709365
H 2.4205928 1.3054909 -1.0230435
H -1.100742 0.41740534 -1.470628
H -1.5849915 -0.9813595 -0.4956981
H 0.85458326 -0.8171345 -1.8595109
