12

O 0.2721846 -0.28489506 1.4964693
C -0.6030232 0.075204805 0.45174068
C -0.14784819 1.4226938 -0.10533235
O 0.80337447 2.0128996 0.35235223
C -0.6471783 -1.0108123 -0.5850529
O 1.0912695 -1.171428 -0.9029356
H -0.7329052 1.8140846 -0.9559308
H 1.4097018 -0.9888715 0.007630938
H -0.9758792 -0.613614 -1.5534219
H -1.6434408 0.20143986 0.8031591
H 0.74735075 0.53234154 1.7303195
H 0.42639336 -1.9890435 -0.73899806
