12

O 1.89646230 1.26957310 -0.17181697
C 1.15158738 0.66923758 0.56574657
C -1.12502658 -0.33765508 0.33970467
O -1.59861155 0.79521670 -0.34296789
C 0.36548117 -0.52289496 0.06177540
O 0.54843557 -0.64397700 -1.32378888
H -1.29913327 0.68383229 -1.25834387
H 1.25591406 -0.01418192 -1.55213833
H 1.02468535 0.94547428 1.63101221
H -1.30086292 -0.17527558 1.40949468
H -1.65096702 -1.25540411 0.04125448
H 0.73203535 -1.41394536 0.60006816
