9

O 1.690492 -0.47680727 0.18426462
C -0.028038237 0.415581 -0.82328117
N 0.5776326 -0.8297525 0.9568029
O -1.6914831 -0.35856128 0.8264496
C -0.43608788 -0.28018808 0.3801879
C 1.3657142 0.20499769 -0.94227374
H -1.6927297 -0.8934232 1.6354433
H -0.67460245 0.8600466 -1.56812
H 0.88910276 1.358107 -0.6494734
