11

N -0.9809066 -1.7065316 0.59492433
C -0.348479 -0.538029 0.15522
C 0.9661113 -0.16348709 0.26737255
N 1.0432796 1.0503213 -0.40137407
C -0.1914683 1.3273723 -0.87413794
N -1.0595282 0.39588293 -0.5528481
H -1.9839053 -1.6051255 0.51250917
H -0.73576605 -1.9690709 1.539999
H 1.8296735 -0.6243099 0.7206686
H 1.8694191 1.612137 -0.51685435
H -0.4084299 2.2208407 -1.445479
