11

N 0.9280301 1.0011026 -0.0044572786
C -0.3162172 -0.9794338 -0.04017401
C -0.2847243 0.3763524 0.04514275
N 1.0435178 -1.2289146 -0.15499239
C 1.7283125 -0.036628824 -0.12863961
N -1.6640055 0.8114537 0.17458898
H -2.0244968 1.3667475 -0.59886914
H 1.4791574 -2.13189 -0.24933293
H 2.8065312 0.016189195 -0.20359188
H -1.9092644 1.2449276 1.0621941
H -1.7868408 -0.43990594 0.09813143
