11

N -1.2008021 -1.1468693 -0.777913
C -0.23406628 -0.23812743 -0.12867808
C -0.17527175 -0.15286717 1.2396464
N 0.8327276 0.8134262 1.274591
C 1.2548149 1.1830654 0.021302767
N 0.5960671 0.5331862 -0.9048147
H 1.209911 1.1954466 2.1278
H -1.8831899 -0.6539621 -1.3588086
H -1.6791914 -1.585874 0.015008824
H 2.0312848 1.9172887 -0.15596941
H -0.7522838 -1.8647128 -1.352165
