11

N -1.62117828 -0.80248031 0.30031637
C -0.30340609 -0.17449046 0.07448209
C 0.70470335 -0.33139233 0.99216131
N 1.63795054 0.45004059 0.30701974
C 1.14186525 0.95720725 -0.86865181
N -0.09836189 0.58108914 -1.05400829
H -1.49848997 -1.29090558 1.19289398
H -1.87557268 -1.47294513 -0.42906263
H 2.57418718 0.62054205 0.63952943
H 1.71690890 1.58376258 -1.53959741
H -2.37860617 -0.12042755 0.38491740
