11

C -1.06515504 1.44059762 -0.30516660
C -0.33792498 0.36549622 -0.42462323
C -0.14330612 -0.48157776 -1.65686790
C 0.53229501 0.02056850 0.77420513
O 1.60964816 -0.51082787 0.62032496
N 0.00598375 0.35024473 1.97942433
H -0.64665394 -0.04808423 -2.52133337
H 0.93121011 -0.55717024 -1.84816588
H -0.52733595 -1.49298226 -1.48839744
H 0.56101849 0.18139977 2.80519916
H -0.91977987 0.73233557 2.06540045
