9

O -1.27027747 0.76127158 -0.85657666
C 0.00286082 0.89230515 -0.41112561
C -0.01766828 -1.31725377 0.79258306
O 1.00055351 0.05755175 -0.94504914
C 0.68911000 -0.09586402 0.44557109
N -0.62838913 -2.26499031 1.05638544
H -1.51621314 -0.17540798 -0.90737367
H 0.26715823 1.94156935 -0.31414667
H 1.47286562 0.20081840 1.13973207
