9

O -1.1198637 0.3676645 -1.0516229
C 0.07468149 -0.09180059 -0.514018
C 0.4860883 0.7416405 0.70198756
O -0.23071711 1.6261927 1.095708
C -0.004007354 -1.50492 -0.065474145
N -0.050001804 -2.592592 0.3191889
H -1.4788693 0.99983495 -0.4049025
H 0.87746614 -0.029849533 -1.2633516
H 1.4452235 0.48382962 1.1824846
