9

O -1.3476422 0.685121 -0.80083245
C 0.5288282 -0.5666454 0.28609404
C 1.3988523 0.59584796 0.22767301
O -0.6024413 -0.44185743 1.1573089
C -0.85010463 -0.43714797 -0.22685835
N 2.0586853 1.5435454 0.14243113
H -0.8779965 1.4685051 -0.47498652
H -1.3465985 -1.319523 -0.62071306
H 1.0384171 -1.5278457 0.30988342
