11

C -0.17652854 1.519236 -0.72061753
N 0.021554029 -0.07429097 0.10791445
C 0.9376983 -0.9131877 0.8542613
O -1.5520272 0.6110496 -1.1234545
C -1.1087954 -0.37952286 -0.42750117
O 0.58437145 1.8030506 -1.5852687
H 0.5496373 -1.9338915 0.9590699
H -0.5829173 2.125726 0.09233188
H -1.6765279 -1.3093903 -0.34228405
H 1.898658 -0.955395 0.3341926
H 1.1048769 -0.49338335 1.8513558
