10

O -1.66557519 0.36994832 -1.10535240
C -0.80273847 0.44748382 -0.02576075
N 0.54359150 0.86526749 -0.43227629
C 0.53732970 -1.09274102 0.71568136
C 1.32399117 -0.02518166 0.04448727
N -0.71414887 -0.84340749 0.64316520
H -1.14391233 1.16875949 0.73764394
H 0.93583782 -1.97988968 1.19868888
H 2.40435933 0.01237596 -0.06212895
H -1.41873414 1.07738471 -1.71414817
