10

O -0.4372284 -1.6382381 1.3885148
C 0.81325364 0.5196752 -0.9225599
N 1.0653315 -0.38888127 0.026718844
C -0.5314267 0.8921316 -0.9109636
C -0.13612713 -0.56768 0.6196434
N -1.1843843 0.18261883 0.04299619
H -0.5598357 0.49250835 1.1834507
H 0.40572512 -2.0634801 1.5976601
H -1.0376685 1.6675137 -1.4679633
H 1.6023606 0.9038319 -1.557497
