10

O -0.6117055 1.937021 -0.081071965
C -0.2968981 -1.2013866 -0.68082863
N -1.1672654 -0.30051288 -0.42683703
C 1.0123744 -0.8518884 -0.070355624
C -0.47950593 0.65692836 0.42873505
N 0.92783946 0.26053774 0.5497966
H -0.92795163 0.55280566 1.432468
H 1.9323624 -1.4252359 -0.1401243
H 0.12647101 2.4548411 0.26387268
H -0.51572084 -2.08311 -1.2756548
