10

O -1.964184 0.99139386 -0.1885972
C -0.80507636 0.35100266 0.043244988
N -0.47550452 -0.2990185 1.1182585
C 0.80143934 -0.7667547 0.85588133
C 1.2175037 -0.38539732 -0.38122615
N 0.15743038 0.34787184 -0.90760916
H -2.4941926 0.8665821 0.6131033
H 1.3374267 -1.3533481 1.588833
H 2.1281981 -0.5478251 -0.9350711
H 0.09695978 0.7954932 -1.8068174
