10

C -0.93202657 0.3778632 2.366428
C -0.47296777 0.2084888 1.2669781
C 0.06698965 0.005933665 -0.032086115
C 1.3396914 0.11997507 -0.54879963
N 1.303579 -0.19554208 -1.8686807
N 0.08755915 -0.4981809 -2.2022727
N -0.6651485 -0.38003448 -1.1093463
H -1.3311195 0.5302594 3.3452613
H 2.2565916 0.40504488 -0.05594478
H -1.6531482 -0.57380754 -1.1615374
