10

C 1.53637135 0.78748636 2.15796911
C 0.94988160 0.45179580 1.16045524
C 0.25033714 0.05072288 -0.01058928
C 0.71204345 -0.16690712 -1.32478489
N -1.57686081 -0.55973145 -1.12201241
N -0.48439495 -0.52747002 -1.88496028
N -1.09672421 -0.20021952 0.02809247
H -1.73044178 -0.13796978 0.81252274
H 2.06805719 1.08424456 3.03405179
H -0.62826871 -0.78195170 -2.85074472
