10

C -1.0419537 1.0930682 0.15156373
C 1.2997435 -1.059161 2.0866628
C 0.6922262 -0.51267564 1.2035395
C -0.021933896 0.12121217 0.15334858
N -0.5325842 0.45669088 -2.001998
N -1.2739313 1.2581333 -1.2293737
N 0.2551366 -0.14652212 -1.1510553
H 1.0062819 -0.71825147 -1.5160642
H 1.8340899 -1.5351936 2.87805
H -2.217075 1.0426995 -0.57467365
