11

N 0.9888568 -0.8489449 -1.525752
C 0.24821548 -0.22168924 -0.5584274
C 0.58990616 -0.2747253 0.8126295
N -0.11884038 0.3837722 1.701876
C -1.1520803 1.0864102 1.2081085
N -1.5101163 1.1585073 -0.063951105
N -0.80014336 0.4843689 -0.9636735
H 1.531675 -1.653936 -1.2616619
H 0.54162014 -0.9063092 -2.4286168
H 1.4385729 -0.85686505 1.1672902
H -1.7576662 1.6494111 1.9121784
