11

N -1.1007308 -0.43599278 0.00011668273
C -1.1270732 -0.033393666 -1.3774709
C 0.3378193 1.0631204 -0.37759075
N -0.6672963 0.8367583 0.71321297
C 0.29291078 -0.17112525 0.44238758
N -0.28790516 0.876902 -1.6589024
N 1.0986583 -0.81241405 1.3600886
H 1.0669835 1.8526858 -0.2245459
H 0.6103879 -1.0648596 2.2098856
H -1.8236911 -0.5094764 -2.0589383
H 1.5999366 -1.6022042 0.9717569
