11

N -0.38476212 1.30467870 -1.32422627
C -0.33883131 0.10739249 -1.74427505
C 0.19584299 -0.19161370 0.48550702
N 0.93577240 -0.67353995 1.54518013
C -0.45248098 1.08312114 0.09503210
N -1.21782904 -0.17700286 0.37374303
N -0.39072036 -0.87333358 -0.69736941
H 1.92853072 -0.72527687 1.35126228
H -0.26378782 -0.21770525 -2.77626779
H 0.58337608 -1.54913098 1.91048667
H -0.59511063 1.91241085 0.78092717
