12

O 1.1097211 -1.4783041 0.26419255
C 0.103551604 1.1825078 -1.3895533
C -0.8927836 -0.14119798 0.4681013
O 0.6146054 0.09589766 -1.6900426
C 0.36569455 -0.65563494 1.0883176
O -0.6242282 1.4241742 -0.38971767
H 1.0701362 -0.98918724 -0.6548372
H 0.24806711 2.0706427 -2.0288777
H -1.3303211 -0.7640924 -0.29747072
H -0.01857818 -1.2517481 1.9357178
H 0.9411477 0.17538226 1.5354325
H -1.5870125 0.3315604 1.1587368
