12

O -0.62354549 0.95426624 1.62586200
C -0.43947333 -0.23244252 1.76350324
C 0.80308274 -0.48975463 -0.26297029
O -0.43551098 1.47837968 -1.08017453
C -0.16517025 0.11743191 -1.27502580
O 0.17551657 -1.04839753 0.91670001
H -1.08023306 -0.49832141 -1.29150533
H 1.31203142 -1.35796343 -0.68672339
H -0.75159662 -0.80642790 2.64554079
H 1.54162345 0.25674322 0.04519337
H -0.63786024 1.59905578 -0.13703550
H 0.30113558 0.02743046 -2.26336492
