11

O -1.5717306 0.058978993 1.8024148
C -0.69992644 0.0154190315 0.78292465
N 0.39855278 0.7102155 0.66471773
C 0.92130244 0.29988047 -0.54001725
O 2.0797725 0.8186214 -0.99644154
C 0.14065553 -0.63806486 -1.1447248
N -0.9260509 -0.8105 -0.252281
H -1.2217097 0.70291436 2.4313712
H 2.3722277 1.4522911 -0.32873422
H 0.2192992 -1.1801507 -2.0717402
H -1.7123923 -1.429605 -0.34749013
