11

O -2.479825 -0.10158097 0.6714415
C -1.2073923 -0.07726183 0.23393159
N -0.15265341 -0.06433175 1.1268106
C 0.8185173 -0.0080433125 0.26192677
O 2.2703776 -0.09699534 0.3487096
C -0.7821017 -0.058184743 -1.0808688
N 0.6044706 -0.0059200292 -1.0355921
H 2.068022 -0.09759871 -0.8048579
H -1.353434 -0.05210698 -1.996411
H 2.6518471 0.750981 0.6412836
H -2.4378288 -0.18895732 1.6336263
