11

O -1.1791608 1.338457 -1.4543304
C 0.22050186 0.23673943 1.2900354
N 0.03230955 -0.6213309 -0.8273452
C -1.019609 0.3453969 -0.51266897
O 1.7650346 -1.4848406 0.46787575
C 0.71373904 -0.70105165 0.24293984
N -0.77248394 0.89328444 0.83836794
H 1.9162802 -2.0107822 -0.33164144
H -0.3494387 1.8303005 -1.5225368
H 0.6510334 0.3623618 2.2777886
H -1.978206 -0.1885345 -0.46848464
