11

O 1.4706001 -1.7862979 -0.53478324
C 0.58806497 -0.7989389 -0.34966743
N 0.29311898 -0.3093538 0.8541546
C -0.577632 0.6882963 0.5776583
O -1.4096844 1.2219175 1.4985685
C -0.09119177 -0.11951533 -1.3704435
N -0.88410944 0.8130554 -0.7940439
H -0.08947761 1.6487814 -0.13901314
H 0.024700334 -0.20135173 -2.440821
H -1.092334 0.92098194 2.3612285
H 1.7679448 -2.077575 0.33716238
