11

O -1.5720562 0.059414 1.8014714
C -0.7008812 0.015292259 0.7833687
N 0.39903754 0.71246034 0.66503465
C 0.9217949 0.3002643 -0.540014
O 2.0808856 0.8164988 -0.99669015
C 0.14078622 -0.63847053 -1.1436805
N -0.92712814 -0.8123162 -0.2507951
H -1.2249054 0.70619583 2.429059
H 2.374421 1.4490167 -0.32817513
H 0.22425006 -1.1795988 -2.070638
H -1.7162042 -1.428757 -0.34894136
