11

C -0.881253 -0.79976296 -1.1894225
C -0.12696353 -0.06287923 -0.14100946
C -0.26343775 1.1325068 0.47096208
N 0.76067036 1.3019239 1.3971577
C 1.4480933 0.22112988 1.2968228
O 0.9841772 -0.66368175 0.38920665
H -1.2552717 -1.7554787 -0.8111316
H -1.7339811 -0.19845279 -1.5134348
H -0.25137457 -1.0028346 -2.0614824
H -1.0195065 1.8889097 0.3200179
H 2.3388474 -0.061380386 1.8423133
