11

C 0.3075964 0.27715045 0.33268896
C -0.025346912 -1.7166833 -0.51221085
C 0.8646524 1.2344427 1.0537784
N -0.9597325 -1.1036294 -1.0988569
C -0.86894244 0.28105667 -0.6230841
O 0.78335434 -1.0256658 0.34792274
H -0.7120902 0.9621358 -1.4673145
H 0.46388867 2.2398226 1.0184803
H 1.7230703 1.0475783 1.6911623
H -1.8026944 0.571507 -0.12923764
H 0.22624433 -2.7677147 -0.6133287
