11

C -0.88096064 -0.7999644 -1.18944
C -0.124146365 -0.06396041 -0.142108
C -0.26181507 1.1327794 0.46941718
N 0.7600257 1.3040065 1.3976597
C 1.4468664 0.22117957 1.2979225
O 0.9853572 -0.66394305 0.39112198
H -1.2611557 -1.7521626 -0.8085994
H -1.7304149 -0.19572596 -1.5175486
H -0.25177503 -1.0111203 -2.0597565
H -1.018089 1.8897609 0.3164267
H 2.336108 -0.06084975 1.8449042
