10

O -0.14309749 -0.19983484 -2.0265927
C 0.9602228 0.024359765 0.15641895
C -0.19294739 0.0013306787 -0.67585915
N -0.8908939 -0.15336609 1.4586471
C -1.3859859 -0.21486099 0.2007121
N 0.46126235 -0.056541987 1.3816811
H -1.0189388 -0.5186198 -2.2870252
H 0.983217 0.009439388 2.246606
H 2.0147574 0.10062735 -0.06345388
H -0.7875962 1.0074664 -0.39113438
