11

C -1.20103452 0.43557916 0.48364971
N 0.02552403 -0.24757659 0.87806626
C 1.12206367 -0.03237059 -0.01584073
C 0.53415306 -0.79726076 -2.44610054
N 0.85550271 -0.44180825 -1.37757357
H -1.57045811 0.13444198 -0.50529907
H -1.97064626 0.22531138 1.22909938
H -0.14105931 -1.24137863 0.98319844
H -1.02287397 1.51644125 0.47447473
H 1.37008718 1.03477010 -0.03354424
H 1.99874120 -0.58614908 0.32986965
