11

C -0.38097107 -0.94575167 -2.4217281
N 0.14568909 -0.95429295 -1.3758227
C 0.6920127 -0.88317156 -0.03810729
C -0.41190046 1.2066405 0.4903945
N -0.13393761 -0.1689656 0.8868243
H 0.53112566 1.7611392 0.4327651
H 1.6688005 -0.39122853 -0.105159216
H -0.9240185 1.2876954 -0.47725332
H 0.84330857 -1.9076257 0.31168273
H -1.0317061 1.671235 1.2599417
H -0.99840283 -0.67567426 1.0364622
