11

O -0.2854009 0.72193235 -2.2406087
N 0.71518236 0.12955178 -1.4420348
C -0.08602895 -0.5428868 1.691023
C -0.7523039 0.33032382 0.6499308
O 0.9284852 -0.8988725 0.68941665
C 0.22730462 -0.08282642 -0.15826486
H 0.08532818 1.5898145 -2.4607549
H -1.608365 0.98138636 0.6008412
H 0.9944687 -0.74001116 -1.889564
H 0.39498374 -0.04530294 2.539535
H -0.6136541 -1.4431092 2.0204802
