11

C -0.65703445 1.32197327 -0.78093237
N -0.39907495 0.54056862 0.19130501
C -0.03585319 -0.77327495 -0.17805676
O -1.05583981 2.57304312 -0.58652634
C 0.90294315 -1.42011142 0.80771393
O -0.45909554 -1.32928894 -1.16691181
H -0.57294459 1.06802780 -1.83510297
H 1.15277022 -2.42903995 0.47763188
H -1.11301549 2.71327198 0.37108183
H 0.42833371 -1.45212673 1.79314384
H 1.80881096 -0.81304281 0.90665376
