11

C 1.6960539 -0.23243658 0.50882626
N -0.68420285 0.082662955 0.12009635
C -1.816268 0.25535178 -0.5226013
O 0.7080899 -0.0630735 -1.6864634
C 0.5715672 -0.06856108 -0.48283806
O -2.7437239 0.35076746 0.33706725
H 2.6360598 -0.34914005 -0.031022673
H -1.6620876 0.17791562 1.0522554
H 1.5151875 -1.1094526 1.1384778
H 1.7468746 0.64334214 1.1650279
H -1.96755 0.3126238 -1.5988256
