11

C -0.28631723 -0.626422 -0.39567888
N -0.15242863 0.65965384 0.17232276
C -0.33825046 -1.720892 0.6391729
O 0.6304594 2.7665708 -0.16723806
C 0.46748334 1.5060328 -0.54998857
O -0.37945387 -0.82315016 -1.5867891
H 0.56940025 -1.6928388 1.2509744
H -0.44076952 -2.690748 0.15114248
H 0.19022363 2.8679714 0.690583
H -1.1840559 -1.5451078 1.3107861
H 0.92370903 1.2989296 -1.5152872
