11

C -0.60688698 -1.10883424 1.30863620
N -0.85430144 -1.50445828 2.43371730
C -0.21116945 -0.70916487 0.11831949
C 0.76964828 0.93137986 -1.41046430
N 0.15896439 0.69821500 -0.07201326
N 0.00438774 1.56302126 0.76106184
H -1.83011832 -1.45091948 2.71990066
H 0.98338118 1.99703210 -1.45515593
H -0.15821282 -1.39380704 -0.71789622
H 0.06085614 0.63934480 -2.18868253
H 1.68345125 0.33819072 -1.49742331
