10

N 0.8043896 -0.15608141 1.6816676
C -0.37903374 0.14182816 1.3648196
O -0.7925812 0.20771593 0.086341515
C 0.2164562 -0.08699367 -0.8710068
C -0.3874487 0.036564693 -2.2020786
N -0.8144263 0.12191952 -3.2723227
H 0.91579175 -0.1564856 2.6931865
H -1.2203773 0.3819766 2.0215533
H 0.6017823 -1.1004345 -0.72639114
H 1.0554476 0.6099903 -0.77576995
