12

C -0.97123858 -0.55756452 0.06275708
N -0.56295210 -0.29182720 -1.17388997
C 0.64077623 0.39857010 -1.62989514
N -0.11542570 -0.07609417 1.00907043
C -0.39642090 -0.28283476 2.34814682
O 0.31007811 0.12496939 3.23621369
H -1.17561801 -0.63021212 -1.89774683
H 0.63828608 0.42777064 -2.72152431
H -1.32671006 -0.85548704 2.48656291
H 1.54364844 -0.12956272 -1.30310719
H 0.74766124 0.44270293 0.84265221
H 0.66791534 1.42956939 -1.25924000
