12

C -1.1240232 -1.0136135 -1.7000039
N -0.99756956 -0.58883613 -0.3211091
C 0.057109393 0.020460976 0.009006121
N 0.24557525 0.46895227 1.3120538
C 1.3525968 1.1476294 1.74598
O 1.5062381 1.5409803 2.8770266
H -2.0014145 -0.533007 -2.1442575
H -0.24575008 -0.7840967 -2.3222697
H -1.3001006 -2.0930848 -1.7295232
H 0.8946692 0.24954517 -0.6613308
H -0.4883911 0.28480694 1.98777
H 2.1010604 1.300263 0.94665736
