10

O 1.32102753 0.65253365 -1.16660844
C -1.01238592 0.14794499 -0.89093221
C 0.26241022 0.21374763 -0.47296287
N -1.81804142 -0.37519537 0.15368189
N -1.14247350 -0.63496424 1.18089081
C 0.26201480 -0.29748770 0.92924709
H -1.45476989 0.42506106 -1.83789908
H 2.12237981 0.61465738 -0.62792342
H 0.87646478 -1.19529324 1.06760226
H 0.58337344 0.44899540 1.66490397
