9

N 2.38692716 0.96984094 -0.80062256
C -0.62836355 -1.13269522 -0.50949375
C 1.40802373 0.94211888 -0.16845909
C 0.23168363 0.88240910 0.56884710
N -0.65226605 -0.12619871 0.33554405
H 0.22111758 -1.24508829 -1.17549317
H -0.02826578 1.60167723 1.32987078
H -1.46646136 -1.81621362 -0.51011387
H -1.47239545 -0.07585022 0.92992062
