9

N 1.1387268 2.2421756 0.9772201
C 0.2503533 -0.559418 -1.2497191
C -0.383743 0.19030507 0.9861214
C 0.43972024 1.3095862 0.99505144
N -0.3981244 -0.6195187 -0.107983574
H -1.0297376 -1.4064316 -0.006674388
H 0.065573744 -1.3345178 -1.980939
H 0.9423133 0.25839353 -1.4234467
H -1.0250825 -0.080574244 1.8103698
