10

N 0.43964779 -1.55629155 -0.21037096
C -0.38143567 0.80437099 -0.54932622
N 0.17189323 -0.05256721 1.53762851
O -0.34617966 1.35751696 1.60255436
C 0.12817686 -0.32967657 0.29188115
C -0.65703252 1.88326561 0.47317170
H -1.30200732 0.54336567 -1.08459617
H 0.69574873 -1.61725048 -1.17977985
H 0.91208082 -2.19518778 0.41197137
H 0.33910772 1.16245420 -1.29313397
