10

N 1.355208 -0.9009263 0.10645445
C -1.7210822 1.1082836 0.10888583
N 0.24429387 0.7116948 1.3529313
O -1.0790992 1.4044461 1.1806563
C -0.84978193 0.0979456 -0.602115
C 0.33094093 -0.028715555 0.31617096
H 2.1657798 -0.80044806 0.69938684
H -1.3867432 -0.8504911 -0.7214058
H 1.534497 -1.1992171 -0.83584875
H -0.59401304 0.457428 -1.605116
