10

N 1.0765333 0.99896806 0.9055508
C -0.39867854 0.03669569 -0.9103472
N -0.07062822 -1.0526582 1.0305966
O -0.9850266 -1.7335844 0.21858266
C 0.2610042 0.020663286 0.38480103
C -1.1455789 -1.1607604 -0.99411213
H 1.5754081 0.716949 1.7382058
H -1.7311758 -0.040243283 -0.8873498
H 1.6579434 1.4795008 0.23572397
H -0.23980099 0.73446935 -1.7216518
