11

C 1.3813043 0.006563972 0.021634765
N 0.23965745 -0.6260757 -0.62835115
C -0.99895775 -0.49962094 0.11025566
C -1.4280611 0.90233994 0.33939967
N -1.7079641 2.0151854 0.47064427
H 1.2502347 1.0835123 0.20628992
H 2.2671037 -0.1379107 -0.6042454
H 1.5660142 -0.4882691 0.98141396
H 0.116642475 -0.24274653 -1.5585146
H -1.7978747 -1.0237306 -0.42323753
H -0.8880987 -0.98924756 1.0847106
