11

C 1.10328063 -0.61233911 0.03404943
N -0.34462031 -0.60367679 -0.33152912
C -1.03746496 0.72300259 -0.48363775
C -1.03424688 1.38754265 0.75903622
N -1.07882546 1.87965731 1.81894588
H -0.58865044 1.25480973 -1.31632367
H 1.64622974 -0.08202675 -0.75020937
H 1.20645207 -0.07209973 0.97685173
H 1.47497708 -1.63725480 0.12847429
H -0.47907046 -1.10985455 -1.20587220
H -0.86806054 -1.12776007 0.37021474
