11

C 0.5830643 -1.1179279 -0.060165882
N 0.57217085 2.2502604 1.616938
C 0.081253126 1.7637215 0.6736182
C -0.58538914 1.1511759 -0.406307
N -0.6810905 -0.3277396 -0.14765833
H 1.1039664 -1.0163957 -1.013811
H 1.1896023 -0.6789493 0.7340561
H -1.2777921 -0.7176862 -0.8761207
H -1.2037828 -0.438989 0.7215446
H 0.37043214 -2.1711009 0.1475374
H -0.1524346 1.3036306 -1.3896315
