10

N -0.1842437 -1.0674447 0.07489752
C 1.0200019 0.68809015 -0.8743079
C 0.85924345 -0.65877575 -0.8464412
C -0.7241353 -0.04894277 0.66388303
C -0.02150439 1.1610289 0.1231688
H -1.5210607 -0.163765 1.3879739
H 0.43187928 1.7378594 0.941852
H 1.3552737 -1.4650946 -1.3756039
H -0.745235 1.8438263 -0.34208634
H -0.47021925 -2.026782 0.24666415
