11

C 0.50764870 -0.90225678 1.52027560
C 0.09724980 -0.15921899 0.30176421
N -0.05017101 1.06791657 0.08142122
C -0.46715995 1.14480982 -1.32025857
C -0.53353355 -0.25610560 -1.87517264
O -0.17642278 -0.98914694 -0.83994044
H 1.42737713 -1.46077755 1.32252978
H 0.67059874 -0.20105623 2.33723834
H -0.26743302 -1.62308297 1.79769158
H 0.23713337 1.74413933 -1.91237169
H -1.44528723 1.63477900 -1.41317742
