11

C 1.463301 -0.63985574 -1.1471074
C 1.141707 0.8336197 -1.1284919
N 0.025191361 1.051837 -0.20638962
C -1.2803146 -0.5569817 1.1973213
C -0.2533202 -0.091558315 0.23090214
O 0.582787 -1.1337196 -0.30012628
H 2.0291808 1.401968 -0.8199577
H 0.8893799 1.178114 -2.1399717
H -1.9234796 -1.3071873 0.7273936
H -0.7946605 -1.0259204 2.0582428
H -1.8797725 0.289684 1.5281845
