11

C 0.51044923 -0.96328753 1.5008879
C 0.16532859 -0.123459294 0.3199523
N 0.63278866 1.0353277 -0.007189266
C -0.034722757 1.3592558 -1.1811395
C -0.8791375 0.35943568 -1.4991925
O -0.7625607 -0.606934 -0.54194486
H -0.38213632 -1.1975564 2.0878081
H 1.2164152 -0.415891 2.127548
H 0.96820104 -1.9089704 1.1935409
H 0.14668095 2.2885423 -1.7029994
H -1.5813062 0.1735368 -2.2972717
