9

O 1.70029237 -0.17643717 -0.17409569
C 0.84613000 -0.81909524 0.37453128
N -0.90021721 0.77449241 -0.33448088
C -0.22328962 1.58197772 -0.94497467
C -0.62109308 -0.43342996 0.36749642
O 0.26351731 2.44616944 -1.56192648
H -1.18744946 -1.26896863 -0.06684820
H 1.07793004 -1.74899767 0.92901472
H -0.95582049 -0.35571109 1.41128355
