11

O -1.1204691 1.2506278 -0.48659027
C -0.6135066 0.73001933 0.71795726
C 0.46445093 -0.29948556 0.45657542
C 0.4259121 -1.1345407 -0.7416617
O 1.2828189 0.007983951 -0.6675006
H -0.3473609 1.4263488 -1.0428734
H -0.19608344 1.5253497 1.357216
H -1.4469086 0.26993576 1.256933
H 1.0137104 -0.654951 1.3283528
H -0.4092171 -1.030511 -1.4308076
H 0.94665366 -2.0907774 -0.74760085
