11

O 0.82247204 -1.3200153 -1.2417853
C 0.5160035 0.74373126 2.1273403
C -0.36373627 -0.7392822 -0.7563699
C -0.119694605 0.65980047 -0.22359502
O 0.81816214 0.5525106 0.8754526
H -0.83137107 -1.3514811 0.031012552
H 1.4601202 -1.3279457 -0.51660955
H -1.0563402 -0.6842426 -1.6016039
H -0.5704797 1.0502635 2.1374779
H -1.040532 1.132465 0.14654608
H 0.36539578 1.2841961 -0.9778659
