10

N -0.5157384 -1.1721737 -1.3718284
C -1.3094373 -0.13182364 -1.093524
O -0.85329777 0.64234596 -0.09867681
C 0.3740268 0.38087222 0.5913966
C 0.5345749 1.4277208 1.608156
N 0.6762584 2.2412746 2.4132621
H 0.34672147 -0.59137356 1.0941693
H -0.8408728 -1.7738415 -2.1113715
H 0.3595974 -1.4435136 -0.93826956
H 1.2281674 0.42051253 -0.09331327
