10

N -1.40197711 -0.74415277 -1.00129273
C -1.69971234 -0.12899523 0.14878312
O -0.62989909 0.36596345 0.78724868
C 0.70322273 0.25236481 0.27658539
C 1.59770367 0.90050017 1.24369020
N 2.31530529 1.40406209 1.99309873
H -2.18886124 -1.13161826 -1.49659504
H 1.00100685 -0.79641023 0.17567275
H 0.80073119 0.76019795 -0.68910231
H -0.49751949 -0.88191156 -1.43808823
