11

O -1.42537366 0.06515930 1.62930584
C -0.49653362 0.11968986 0.65953192
N 0.47140568 0.92469425 0.73325412
C 1.50779108 1.03323161 -0.20594309
O 1.61310647 1.94417070 -0.98513896
C -0.79436621 -0.87907527 -0.41202528
N 0.04216755 -1.04002441 -1.35240397
H -1.19343233 0.74035574 2.28666228
H 2.28884820 0.26361834 -0.06137080
H -0.27312534 -1.75745249 -2.00690819
H -1.74048767 -1.41436760 -0.28496427
