10

O 0.8119926 0.010281405 0.8097263
C -0.38057822 0.322002 0.08961308
C 1.0988554 0.82959753 1.792504
C -0.37400365 -0.112938836 -1.3141896
N -1.1812527 -0.8011646 -0.29430154
H -0.93901736 0.43527934 -2.0635505
H 0.5334807 -0.59771943 -1.6667435
H -0.7514803 -1.673586 -0.003724358
H -0.86414266 1.2123938 0.47543895
H 2.0461462 0.37585485 2.1752272
