11

C -1.5808622 -0.508648 0.9686039
C 1.1027802 0.7054815 -1.2409791
O 0.51187825 -1.4349533 -0.056451075
C 0.8893347 -0.032270547 0.051160406
C -0.39567494 -0.5313878 0.4487888
N -2.757841 -0.42418477 1.335562
H 2.0915084 0.46888903 -1.6466371
H 1.0526114 1.7840549 -1.0630798
H 1.6217899 0.14249516 0.8409382
H 0.33883384 0.42984623 -1.9737536
H -2.8743584 -0.5993223 2.3358471
