11

C -0.5777322 0.18785667 0.11905814
C 1.5410088 -1.001527 -1.2511687
O -0.6371124 -1.2872769 0.111819305
C 0.033361953 0.8209692 1.3397907
C 0.2091686 -0.65474135 -0.74327403
N 0.73915756 -1.0112246 -2.2673044
H -0.36007023 -0.6375155 -1.9700484
H -1.493797 0.6313917 -0.27259427
H 0.95101607 0.3009339 1.621331
H -0.67181116 0.77957815 2.1757102
H 0.26680982 1.8715556 1.1366804
