11

O -1.04278692 -0.57620685 0.47429811
C -1.00005908 0.27738999 -0.68272558
N 1.14776191 0.00892629 0.32678167
C 0.22437530 -0.63011739 0.91473771
C 0.48903398 0.69994139 -0.77889692
O 0.35664541 -1.40230006 1.98927178
H -1.68317691 1.11368544 -0.51304446
H 1.29559913 -1.37430569 2.22013940
H -1.34474303 -0.30292294 -1.54309396
H 0.93819185 0.40312905 -1.73240933
H 0.61915865 1.78278044 -0.67505819
