11

O -0.5248476 -2.3337855 0.57343155
C 0.8114108 0.7375288 -0.3652621
N 0.9511894 -0.70229566 -0.16199633
C -0.66198254 1.0511636 0.0034410427
C -0.18303046 -1.0899501 0.25029156
O -1.1960573 -0.22257684 0.40531975
H 1.5209341 1.2767811 0.27194977
H 1.0375853 0.99702275 -1.4047496
H -0.7661829 1.7431818 0.84313434
H 0.26554814 -2.871404 0.42524734
H -1.2545669 1.4143339 -0.84080714
