11

O -0.68400120 2.49598274 -1.29231053
C 0.62151261 -0.45583950 0.07220856
N -0.15460865 -1.19796717 1.06604562
C 0.71042985 1.03650287 0.14641581
C -0.02371299 1.81741282 -0.61427171
C -0.64309870 -1.13069611 -0.30313825
H 1.55810305 -0.94486296 -0.18756727
H 1.41192341 1.50251419 0.83136303
H -0.67835151 -0.56121779 1.65907553
H -1.50460955 -0.50002085 -0.51461729
H -0.61358618 -2.06180815 -0.86320343
