11

O -0.44876027 2.4427137 -0.6907432
C 0.04072081 1.4107484 -0.34089234
N -0.9773648 0.10867096 -0.008956566
C 0.54610616 -0.5125955 0.52888364
C -0.39414436 -1.1515174 -0.40562984
C 1.1479596 0.7278533 0.089762904
H -1.7506819 0.105711766 0.6415041
H 0.7310711 -0.98088825 1.4949213
H -0.9286386 -2.0238228 -0.030419495
H -0.13130267 -1.2059155 -1.4620274
H 2.1650348 1.0790406 0.18359685
