11

O 0.19616926 2.8711512 -0.29302284
C -1.0410956 -0.672915 -0.4972402
N -0.5044783 -1.3832145 0.6539891
C 0.60749525 1.8198295 -0.007176883
C 1.0555005 0.6253185 0.30883944
C 0.40987635 -0.62532234 -0.20063646
H -1.4067789 -1.2952614 -1.3099359
H -0.70281833 -0.87108064 1.5082847
H 1.9330281 0.55994153 0.94451517
H 1.0717677 -1.2614704 -0.78462666
H -1.618666 0.23302358 -0.3229894
