10

O -0.88123316 1.1608905 1.2836313
C 0.47302306 -0.41882852 -1.367223
C 0.8218918 0.10751685 -0.19611707
C -0.39850643 -0.00048024495 0.6673139
N -0.9144272 -0.8098812 -1.3471026
N -1.4247086 -0.5264477 -0.24800391
H -0.24813122 -0.8216939 1.3912948
H 1.7860396 0.48729485 0.11254613
H -0.2580161 1.4093919 1.9741704
H 1.0440685 -0.58776236 -2.2705104
