10

O -0.24662755 0.97441054 1.66182038
C -0.42406446 0.02127842 0.65102388
C 0.75498607 -0.33909861 -0.20133549
C 0.35235187 -0.15540407 -1.45607847
N -0.99400140 0.35949439 -1.47969427
N -1.41259849 0.52088682 -0.31888914
H -0.88093577 -0.90897871 1.03448599
H 1.70281645 -0.71877414 0.15440228
H 0.85532418 -0.32918100 -2.39808701
H 0.29274883 0.57536626 2.35235168
