12

O 0.8704782 1.9634107 -1.2783874
N 1.0106491 1.4109902 -0.007053283
C 0.31275028 0.36613792 0.104873024
C 0.1344004 -0.60558873 1.2420179
N -0.56040424 -1.513034 0.2940849
C -0.5861025 -0.47863156 -0.77000856
H 1.4660845 2.7209682 -1.2416482
H -0.49244568 -0.21681352 2.0543115
H 1.0494581 -1.0270603 1.6690762
H -1.480333 -1.7938828 0.60938185
H -1.5650936 -0.019500708 -0.95444345
H -0.15944147 -0.8069958 -1.7222043
