12

O 1.51747277 -0.73277656 -1.87787342
N 1.06182596 0.54171911 -1.47794548
C -0.66137403 1.26325149 0.20209730
C -0.23022686 -0.80075601 0.27584474
N -0.89390453 0.18188281 1.24310873
C 0.20087962 0.40982565 -0.52988264
H -0.48415477 2.26786761 0.56876353
H -0.36282097 0.23755319 2.11642052
H 0.55376661 -1.38443909 0.76651096
H -0.97691832 -1.45549453 -0.17470647
H -1.86629360 -0.02522666 1.46598735
H 2.14174821 -0.50340740 -2.57832492
