11

N 0.7408584 1.7336009 2.3394365
C 0.25117376 1.321096 1.3804466
C -0.34778205 0.77987105 0.14656012
C 0.5780869 -0.11618821 -0.7007694
C -0.40107563 -1.2309093 -0.31277156
O -1.2401603 -0.30365723 0.40392166
H -0.8370543 1.6006474 -0.38785008
H 0.59047997 0.14630575 -1.7591603
H 1.5969608 -0.22020197 -0.3285959
H -0.9361397 -1.7109612 -1.1364961
H 0.0046524396 -1.9996033 0.3552781
