11

N 0.71410893 1.62422666 2.04522703
C 0.29008596 1.36422783 1.00197135
C -0.20827465 1.15978211 -0.36616189
C 0.47629500 -1.23044577 -0.18711168
C -0.83294655 -1.28841655 0.52631493
O -0.35629951 -0.19305313 -0.78208330
H -1.20079761 1.60390430 -0.45876302
H 0.48055563 1.64342775 -1.06817208
H 1.32538796 -0.80915806 0.35724283
H -1.46178335 -1.95815248 -0.08576858
H 0.77366847 -1.91634277 -0.98269596
