10

O 0.038249265 -2.5492377 0.51705146
C -0.2379569 -1.9907147 -0.5105334
O -0.23918875 -0.66798997 -0.69725585
C 0.13279685 0.09617756 0.46277407
C 0.102876 1.5115782 0.11178706
C 0.08789147 2.684803 -0.13931875
H -0.52700394 -2.4896555 -1.4465915
H -0.5659061 -0.11849482 1.2780203
H 1.1330823 -0.20553723 0.7922576
H 0.07515996 3.7290714 -0.36819094
