10

N 0.90334904 1.9270842 -1.8491347
C 0.3537404 1.0797626 -1.2850634
C -0.32612383 0.023057023 -0.5734108
C -0.48328656 0.12044172 0.9281652
C 0.46519974 -0.8774473 0.34964657
H -1.1430436 -0.43097675 -1.1266584
H -1.4228803 -0.2304856 1.3434001
H -0.06868594 0.99679434 1.4132943
H 0.19282417 -1.9270848 0.36078775
H 1.5289071 -0.6811454 0.43897358
