10

N 0.43674403 2.588739 -0.7213832
C 0.41809037 -1.2406689 -0.15953779
C 0.25490248 1.4154452 -0.3700309
C -0.89107674 -0.8340715 0.48729962
C 0.0056980466 0.17562683 -0.10868117
H -0.95879614 -0.88009155 1.5715644
H 0.9404313 3.1477978 -0.032847177
H 0.37710178 -1.7470213 -1.1190395
H 1.2294272 -1.5597429 0.48968652
H -1.8125224 -1.066013 -0.03703083
