12

C 0.08170708 0.28995283 0.90384960
C -1.26680906 0.04223090 0.17476872
N 1.89230937 -0.50266704 -0.67215378
N -0.54711722 -0.90518460 -0.68769543
C 0.69941645 -0.47414920 -0.25792297
O 0.52230276 1.59337417 1.11831715
H 0.99705712 1.87957736 0.32841971
H 1.96716728 -1.03511089 -1.54016506
H 0.14561238 -0.25810771 1.84789040
H -2.07740114 -0.40527803 0.75630024
H -1.61282855 0.94352157 -0.34414137
H -0.80141663 -1.16815949 -1.62746726
