11

C -0.4147139 0.11525611 -0.08010091
C 0.7936442 -0.38284612 -0.8098994
C 0.72825354 -0.5091728 0.6849111
O -1.5801933 -0.6149794 -0.28520203
C -0.61168945 1.555064 0.04893341
N -0.7834701 2.6911294 0.18021077
H 1.3587023 0.13459668 1.2879038
H 0.63109857 -1.2767714 -1.4012674
H -2.118901 -0.56784 0.51564187
H 1.469558 0.34875575 -1.2406111
H 0.52771103 -1.4931924 1.0994797
