11

C -0.4384543 -1.3813797 -0.56752205
C -0.5133382 0.014814231 0.036859926
C 0.8434158 0.6445859 0.22439583
O 1.8990624 0.14506285 -0.057007346
C 0.8118082 2.0102844 0.8169903
N 0.77533317 3.068584 1.2780169
H 0.045564264 -1.3600588 -1.5477015
H -1.4458865 -1.7897841 -0.68758655
H 0.13532515 -2.0569088 0.07197767
H -1.0068948 0.007669707 1.0179532
H -1.1059352 0.6971305 -0.5863765
