11

N -0.72906128 1.20037405 1.25303251
C 0.87944907 -1.01447917 -1.10810798
C -0.40648387 -0.55613379 -0.49157502
C 0.09265459 0.48795694 0.46713340
C 2.04472173 -0.48227334 -0.71018601
O 1.31964869 0.65970756 0.48616435
H 0.89914075 -1.77983012 -1.87971493
H -0.94503750 -1.34502988 0.05004924
H -1.10781213 -0.10872661 -1.20751780
H -1.72207882 1.05495029 1.26316997
H -0.32514128 1.88348405 1.87755204
