12

C -0.2826407 -0.57198066 0.52309823
N 0.9732712 -0.8939976 0.6275631
C 2.0587692 -0.25179896 0.012010467
N -0.7590426 0.51483905 -0.18550973
C -2.0928283 0.8041159 -0.34866446
O -2.517843 1.7531688 -0.96442693
H -1.0234606 -1.2156959 0.9824229
H 1.9690254 0.7768579 -0.31507063
H -0.10994213 1.1580803 -0.6269931
H 3.0187516 -0.6114414 0.36146912
H -2.7377145 0.05689026 0.14515741
H 1.5036553 -1.5190376 -0.21105638
