12

C 0.55723333 -0.64713454 -1.8479164
C -0.080608174 -0.742151 -0.47945204
O -0.6057306 -1.7449869 -0.048449956
N 0.009017635 0.41842714 0.270932
C -0.47458017 0.5402296 1.5646483
N -0.34417945 1.6436062 2.1741483
H 0.13430129 -1.4248278 -2.4841979
H 0.4014684 0.33302912 -2.3102946
H 1.6361878 -0.81856793 -1.7575039
H 0.4489825 1.2413709 -0.11781282
H -0.93854314 -0.37693745 1.9304491
H -0.7435494 1.5779428 3.1054494
