10

O 1.8317343 -0.15892977 0.77726126
C 1.1353511 -0.8086827 0.034207862
C -0.11674703 -0.26783285 -0.5618925
C -1.0607264 0.3865836 0.39385617
N -0.29399306 1.1802613 -0.5396043
H 1.3961248 -1.8506595 -0.24283564
H -0.5041542 -0.7850838 -1.4359577
H -2.1269023 0.32512197 0.19376118
H -0.7705164 0.39389214 1.4435856
H 0.50982934 1.5853297 -0.062381987
