10

O 1.68074054 0.11102317 0.15937792
C 0.52105811 -0.59809410 0.53007738
C -0.64134022 -0.33656541 -0.43522840
C -0.97473747 1.09391291 -0.45799280
N -1.17508813 2.23139973 -0.43682663
H 0.78384231 -1.65690433 0.49240643
H -0.35676596 -0.64124442 -1.44768808
H -1.53013605 -0.90105131 -0.14011918
H 0.20618652 -0.35894577 1.55743403
H 1.48624050 1.05646964 0.17855927
