10

O 1.1596743 1.109889 -0.5347132
C -1.4027327 -0.24336585 -0.57413405
C -0.2106238 -0.81569076 0.06560084
C 0.7303281 0.3002155 0.53543603
N -2.3064506 0.27277738 -1.075487
H 0.38758397 1.5240575 -0.940186
H 0.3030601 -1.4492651 -0.66487765
H 0.23601474 0.89040947 1.3222798
H 1.6300167 -0.14824767 0.96087104
H -0.5268705 -1.4407792 0.90521044
