11

C -0.5251386 1.0419033 0.5415328
C -0.07514454 -0.049129043 -0.43060854
N 1.3780633 -0.14413014 -0.44677737
C -0.7206564 -1.3471615 -0.10340224
N -1.1605192 -2.3811717 0.16484562
H -1.6127834 1.1594231 0.5287644
H -0.22124656 0.79588073 1.5650368
H -0.05653111 1.9873698 0.25615373
H -0.39885098 0.22428092 -1.4410416
H 1.6799273 -0.8576322 -1.1023788
H 1.71288 -0.42963317 0.46787545
