11

O -1.4738541 1.6274451 1.2688581
C -0.751919 0.84094244 0.6921407
N -0.7584626 0.56048423 -0.65315
C 0.22259659 -0.42660108 -1.033934
C 0.875003 -0.74432445 0.2877381
C 0.32336572 -0.025868239 1.2653272
H -1.396847 1.0117111 -1.285144
H 0.94972163 -0.03340761 -1.756458
H -0.23687588 -1.3189015 -1.4790606
H 1.6785253 -1.4674712 0.37592182
H 0.56874627 -0.024008669 2.3177607
