10

N 1.9802046 0.96697164 -0.11595184
C 0.32700038 -0.9778066 0.5044211
O -1.0741358 -0.73761666 0.42754644
C 1.0302182 0.24456252 0.012645088
C -1.3411231 0.3761958 -0.3107516
N -0.46695065 1.1167321 -0.80207
H -2.4157283 0.51907426 -0.41408378
H 0.5814908 -1.8298271 -0.13654356
H 0.58658606 -1.1996303 1.5420018
H 0.79243755 1.5213445 -0.7072135
