10

N -0.32913262 0.13541153 1.25801764
C -0.74426469 0.19864724 -0.09796921
O 1.48807065 -0.40921436 0.01864600
C 0.90260286 -0.20446747 1.20795364
C 0.46019910 -0.15585174 -0.95603927
N -1.88546562 0.48990089 -0.55770126
H 1.55111985 -0.35016816 2.06631747
H -2.52783069 0.68596919 0.20932174
H 0.30446536 -1.05826453 -1.55143188
H 0.78023578 0.66803743 -1.59711540
