12

C -1.1200367 -1.0126653 -1.7009538
N -0.9978226 -0.58557403 -0.32226938
C 0.054286875 0.021674434 0.0093329325
N 0.24564706 0.46688128 1.3130769
C 1.3521513 1.1475332 1.746699
O 1.5024548 1.5402029 2.8792596
H -1.9993218 -0.534444 -2.1450138
H -0.24339893 -0.78638405 -2.3263276
H -1.2970686 -2.0927017 -1.7255379
H 0.893292 0.25330544 -0.66120857
H -0.48907304 0.281386 1.9871714
H 2.0988896 1.300786 0.94577116
