12

C 0.008437574 -0.054637283 0.010792085
N 1.1914145 -0.36190256 0.6763892
C 1.6821798 -1.6307733 0.839265
N -0.37871844 1.1368964 -0.115207255
C -1.6191683 1.3664991 -0.8321752
O 2.714256 -1.8862548 1.4102575
H -2.1174996 0.44858083 -1.1800264
H 1.0288274 -2.4014504 0.3908062
H -0.5183272 -0.9392623 -0.3721739
H 1.7346234 0.4024592 1.0593483
H -2.3101478 1.9172199 -0.18683022
H -1.4158776 2.0026255 -1.7004455
