10

O 1.7151768 -1.778159 0.825733
C 1.1523263 -1.467299 -0.19751519
C 0.19624981 -0.3395582 -0.2618806
N -0.3943822 -0.041562457 -1.3923774
O -1.1935449 1.029362 -1.1208957
C -1.0673832 1.359081 0.1783438
C -0.19798191 0.5302293 0.79471135
H 1.3157735 -2.0029445 -1.1510298
H -1.6606622 2.203008 0.50439
H 0.13442793 0.5078427 1.8205204
