11

O -1.51175890 -2.43352379 0.42771356
C 0.93636395 0.08036828 0.38757310
C -1.09696497 -1.20625319 0.05750647
C 0.36429640 2.28824252 -0.87957984
C 0.59741245 1.16671408 -0.26005467
N 0.13838870 -1.07790247 0.54565016
H 0.55748083 -1.84397978 1.07515354
H -2.40541438 -2.53434212 0.08200498
H 0.62102301 2.42211425 -1.92876789
H -0.11130023 3.12592814 -0.37395231
H 1.91047292 0.01263415 0.86675314
