11

O -0.63648176 -2.548525 0.8615555
C 0.7412999 1.1189742 -1.9663649
C 0.33060348 1.1629791 -0.6823178
C -0.046092313 -1.4832414 0.2745587
C -0.24044102 0.9148222 0.48546538
N -0.55303746 -0.41484404 0.87485504
H -0.44553792 1.6971061 1.2065438
H -1.2420574 -0.5142644 1.6211742
H -0.26018065 -3.3297102 0.4403141
H 0.5105488 2.2651129 -1.0907536
H 1.8413765 1.131591 -2.0250306
