11

N 0.9012083 0.011972682 -1.6883713
C -0.34638193 -0.4907319 1.4909058
C -0.7316325 1.1543615 -0.031847693
O -0.28772876 -1.1428833 2.4856722
C 0.030493004 0.28602046 -0.71231127
O -0.9884085 0.6516851 1.2985417
N 0.22167286 -0.8824767 0.18121126
H -1.0293429 2.1768785 -0.19508737
H -0.26662534 -1.7190567 -0.14658381
H 1.2617177 -0.8462998 -0.45803353
H 1.2350283 0.8005303 -2.224096
