11

N 0.9493072 1.1471808 1.119946
C 0.11921543 0.3237257 0.35778615
C -1.2032692 0.12530361 0.3137849
O -1.5105604 -0.7314882 -0.73635846
C -0.3481165 -1.0902784 -1.358964
O -0.27581027 -1.8051395 -2.322121
N 0.6630004 -0.46539268 -0.6580929
H 1.6146789 0.6241421 1.678309
H 0.4185799 1.7609668 1.7229887
H -2.024375 0.4955484 0.90410596
H 1.5973498 -0.38456872 -1.0213846
