11

N 0.42080787 0.8423927 -0.1404264
C 1.1927009 -0.088966295 -1.046121
C -0.65029496 0.0014032291 0.5509301
O 2.0969884 0.28645805 -1.7284604
C -0.41869196 -1.2474629 0.04314777
O 0.6787035 -1.2664107 -0.9000425
N -1.3815746 0.692554 1.34834
H -0.8787093 -2.2045655 0.20289198
H -0.0070789815 1.607143 -0.6715992
H -2.08753 0.10320949 1.7844459
H 1.0346792 1.274245 0.55689377
