9

N 1.28310891 -0.84321275 -2.24403210
C 0.89156014 -0.69069338 -1.17010391
C 0.35037796 -0.49605528 0.18283882
C -1.10155570 1.47761281 0.75771235
N -0.85511491 0.34961397 0.14448432
H 1.09333239 -0.00077925 0.81339382
H -0.18573413 1.70602074 1.34926028
H -1.59050111 -0.02810708 -0.44799349
H 0.11452624 -1.47439945 0.61444017
