9

N -1.2880069 -0.6480008 2.2556326
C 0.32323867 -0.3416871 -1.4318246
C -0.10309621 0.4107209 0.18352728
C -0.77042335 -0.18048817 1.3356107
N 1.1060504 -0.30360764 -0.23368837
H -0.8881385 0.15648201 -0.6808181
H 1.0804986 -1.2330647 0.18641026
H 0.05017202 1.4824723 0.28074494
H 0.48970515 0.6571732 -1.8955952
