9

N 1.1076834 -0.97950524 -2.1864753
C 0.89596635 -0.5099064 -1.1527973
C 0.6159996 0.05172563 0.15524483
C -0.70875967 0.69152707 0.38018236
N -0.39421883 -0.578388 1.0046555
H 1.491071 0.42318997 0.6806432
H -0.76468956 1.5411513 1.0543696
H -1.4027739 0.711791 -0.4568018
H -0.8402786 -1.351585 0.52097917
