12

C 0.25003362 -0.15157029 0.43839794
C 0.8977527 -0.8567133 1.5819125
O -0.7008914 0.69387186 0.6175143
N 0.5014046 -0.2159733 -0.82805914
C -0.83557117 0.92695516 -1.0583405
N -1.8800093 0.49724463 -1.6043878
H 1.5871904 -1.6292005 1.2349886
H 1.1240672 -0.8633205 -1.2908136
H -0.31195813 1.878531 -1.1736158
H 0.12730286 -1.3054175 2.213397
H 1.4507135 -0.12743722 2.1813648
H -2.2100348 1.15303 -2.3123586
