12

C 0.93496865 1.2183198 0.7556504
C -0.88697344 -0.20393378 0.19528799
O -0.13158503 0.48715422 1.1398596
N 1.2993855 1.364919 -0.4430043
C -0.15142241 -1.3264941 -0.48684162
N -2.0960693 0.1389189 0.122783504
H 0.3803297 -1.9215885 0.26169345
H 2.125765 1.9564033 -0.48161465
H 1.3951144 1.6522388 1.6508402
H -0.8570442 -1.9670956 -1.0197762
H -2.5964572 -0.48078337 -0.507949
H 0.5839885 -0.91805863 -1.1869293
