9

O 0.20146948 1.6397481 1.1399556
C 0.19106351 0.65771997 0.2319567
N 0.7558486 0.6547369 -0.93818456
N -0.46237475 -0.5071647 0.4782498
C -0.25202858 -1.2476424 -0.66142464
N 0.46682757 -0.5730931 -1.5088495
H 0.7180553 2.3652182 0.7564002
H -0.6392935 -2.2459204 -0.8071108
H -0.9795677 -0.74360234 1.3090069
