9

O -0.28306006 -0.35505955 1.95516558
C 0.00733817 0.30743736 -1.40108558
N 1.29666792 -0.40106177 0.19488347
N -0.75224388 0.26187585 -0.25549847
C 0.11469876 -0.18534301 0.68949037
N 1.22208279 -0.08157134 -1.15015224
H -0.37473776 0.62450907 -2.36089861
H 0.48915953 -0.67456256 2.44697576
H -1.71990519 0.50377584 -0.11887982
