11

O -1.01012620 -0.09222921 1.42131836
C -0.52605143 0.99424102 0.58540522
C -0.18578221 -1.00002602 0.82207565
O -0.14119278 -2.17481592 1.00193226
C 0.50036473 0.05321175 -0.06495308
N 0.49105505 -0.06588529 -1.49632987
H -0.40339380 -0.40420104 -1.83421000
H -1.30895413 1.34309724 -0.09157267
H -0.14008270 1.81473325 1.19098713
H 1.52260671 0.24800042 0.27412994
H 1.20155681 -0.71612626 -1.80878273
