11

C -0.9415127 -0.15800636 0.82606775
C 0.8279162 -0.8498216 -0.64523095
C 0.8061666 1.2933422 -0.15896833
O -1.009896 0.4586755 -1.5026493
C -0.19102728 0.17878312 -0.5849859
N 1.4864677 2.1915119 0.09719913
H 1.4407879 -1.0698453 0.22389454
H 0.9787301 -1.4258415 -1.5563332
H -1.5335456 0.7372375 1.0062432
H -0.266249 -0.34765118 1.6606389
H -1.5978374 -1.0083842 0.63412386
