10

O 0.049603086 -0.60346943 1.938869
C -0.47426647 -0.7010203 -0.30009264
C -0.402496 0.17938173 0.92352504
N 0.06696829 0.84269786 -1.3813167
N -1.1109115 0.21959586 -1.2524457
C 0.7234955 0.17111184 -0.3650835
H -0.5819956 -1.782945 -0.3695541
H 0.12880711 1.7762816 -1.7476052
H -0.19008008 -0.17788973 2.771121
H 1.7908756 0.07625572 -0.21741734
