10

O 0.02947570 1.59742981 1.25427185
C 0.48657778 0.03142760 -0.66952621
C 0.18113594 -0.61284261 0.63089418
N -0.21881936 -1.00939512 -1.24735718
N -0.68717321 -1.53837964 -0.11021836
C -0.60153482 0.66942191 0.48693884
H -0.71258371 -1.11340208 -2.11623532
H 1.29020619 0.60835388 -1.10706558
H 0.83014388 -0.94077929 1.44221270
H -0.59742847 2.30816514 1.43608479
