10

O -1.9016724 -0.8192024 -0.43732902
C -0.90374076 0.05476112 -0.15475081
C -0.20659141 -0.016775949 1.0279107
N 0.59734714 1.2547845 0.9990734
N 1.3457063 0.7806293 -0.0003560042
C 0.61197805 -0.25372055 -0.46487275
H -0.27210268 -0.6545244 1.9112927
H -2.220731 -0.62634903 -1.3297853
H 2.0076826 1.373268 -0.48681006
H 0.9421242 -1.0928704 -1.0643728
