9

O 0.83887905 -1.7221574 -0.6232583
C 0.27450287 -0.5738301 -0.21499202
N -0.65794605 0.06907497 -0.89819396
N -0.9064183 1.1239761 -0.124414645
N -0.21865638 1.2126107 0.9912873
C 0.55754113 0.13107607 0.96790165
H 0.44798324 -1.960278 -1.4735708
H -1.5927277 1.8143145 -0.3833323
H 1.2568423 -0.09478679 1.758573
