11

N 0.3769376 1.0599279 -0.93437684
C 0.965526 -1.1033608 1.1889243
O -1.6308696 0.92393607 0.081051245
C -0.17756853 -1.0073735 0.15458067
C -0.47992516 0.32490325 -0.23493743
O 1.108854 -1.3726875 -0.26259392
H 1.423936 -0.08750615 1.3056415
H 1.235948 0.5944931 -1.1789318
H -2.1296442 0.34500194 0.67348856
H -0.97973055 -1.7420505 0.17115428
H 0.28653648 2.0647163 -0.9640006
