10

N 0.15383436 1.21700456 -0.99695951
C -0.26253907 0.61018943 0.05644743
C 0.26892075 -0.73694418 0.34389771
N -0.22119153 -1.28470391 1.50352677
C 0.69446958 1.77758547 -1.91381225
O 1.08663705 -1.29581435 -0.36289479
H -0.96072110 1.12191195 0.70830604
H -1.05750382 -0.92266926 1.92689947
H 0.00438584 -2.25266158 1.65917694
H 0.29370793 1.76610173 -2.92458784
