10

N -0.8281971 0.8685377 1.3519144
C -0.1722156 0.17674567 0.350086
C 0.3509451 -1.0662994 0.21017815
N 0.9877632 -1.145374 -1.0269583
C 0.81195533 0.011361102 -1.5519942
O 0.112503365 0.8810771 -0.7712645
H -1.5036608 1.535463 1.0053451
H -1.2305075 0.2644127 2.0530534
H 0.33273 -1.9032129 0.89235693
H 1.138684 0.37728888 -2.512717
