9

O 2.5041409 -0.30602422 -0.05308837
C 1.4283772 0.22045116 -0.13282143
C 0.21206592 -0.23439862 0.66349244
C -1.024771 -0.09376694 -0.1058609
C -2.0148232 0.037919786 -0.77729666
H 1.2562582 1.101352 -0.78656846
H 0.16257623 0.39360017 1.5632885
H 0.3745468 -1.2657132 0.99577034
H -2.898371 0.14657983 -1.3669156
