9

O -0.04958505 -0.5593146 -1.4877269
C -0.030599866 -0.54768103 0.9715676
C -0.11336959 0.81951576 -1.1750807
C 0.56727314 -0.12542999 -0.28036794
C -0.49540442 -0.8905248 2.0265405
H 0.4811668 1.4754989 -1.8090153
H 1.6562346 -0.16066617 -0.30535108
H -0.91684043 -1.1986803 2.956723
H -1.0988752 1.1872823 -0.8972887
