11

O -0.8139044 2.0283482 -0.7910326
C 0.9597207 -0.8114065 -0.5424753
C -0.67278683 0.036587358 0.87744033
C -0.40634456 0.9185022 -0.31042024
C 0.30894685 -1.0851233 0.6018129
N 0.5187164 0.41015947 -1.0901873
H -0.48233628 0.5735966 1.8129767
H -1.7184994 -0.28592205 0.89118606
H 0.4466952 -1.9533225 1.230884
H 0.1336029 1.5575436 -1.6356423
H 1.7261894 -1.3889633 -1.0445423
