11

O -2.0692089 -0.81965345 0.22719696
C -0.29315412 0.5514021 -0.781798
C 1.1461056 0.63602567 -0.35291266
C 1.2831914 -0.18265621 0.7001775
C -0.7932031 -0.4338714 0.23244382
N 0.08539454 -0.84970033 1.0687791
H -0.83339286 1.5022001 -0.70725733
H 1.9031211 1.246808 -0.8210235
H 2.1780117 -0.38029435 1.2786306
H -0.43078214 0.17671253 -1.8020853
H -2.1760833 -1.4469727 0.95784855
