11

O -1.61335416 0.46245083 1.47929152
C -0.23246324 0.81933622 -0.52520538
C 0.88992597 -0.04909623 -1.02384339
C 1.00376479 -1.06662478 -0.15798671
C -0.61805495 0.04230311 0.69832963
N 0.07213325 -1.01705344 0.91212434
H 1.47533739 0.13453078 -1.91200434
H -1.07208838 0.90385323 -1.22392308
H 1.70646193 -1.89108635 -0.18717654
H -1.69039807 -0.17589638 2.20412281
H 0.07873547 1.83728327 -0.26372841
