10

N 0.90658840 1.16904720 1.27753342
C -1.04158335 -1.12651812 -0.33620976
C -0.73663436 -0.60360678 0.87916727
C 0.28546266 0.36469534 0.43755047
C -0.27961647 -0.55436831 -1.45922690
O 0.60084727 0.45040404 -0.82927079
O -0.22527004 -0.71062048 -2.63295772
H -1.76221799 -1.90810502 -0.55663808
H 0.64114138 1.09630440 2.24927915
H 1.61128252 1.82276787 0.97077252
