10

N -1.5380076 -1.4211509 0.75026554
C -0.6806043 -0.6421446 0.26504347
C 0.14061904 0.33392403 1.0110539
C 0.92456686 0.9662132 0.13621455
C 0.6381666 0.41873023 -1.2178948
O 1.1049964 0.6954894 -2.278916
O -0.3410152 -0.5512849 -1.0705702
H -1.9677883 -1.9966857 0.024799908
H 0.058810625 0.4545359 2.082173
H 1.6602559 1.7423735 0.29783022
