10

N 1.0214702 1.5394952 0.6381369
C 0.7441839 -0.89360195 0.5723394
C 0.35394773 0.48396695 0.2154972
C -0.24865782 -1.5486604 -0.08243937
C -1.1891747 -0.6743913 -0.80368686
O -0.6917007 0.69167066 -0.5428748
O -2.1543672 -0.81549037 -1.477116
H -0.4091938 -2.621155 -0.13501821
H 1.8183514 1.3594526 1.2319453
H 0.755141 2.4787135 0.38321632
