10

N -1.0637593 -1.6144313 0.4849841
C -0.24577352 -0.62830865 0.35226357
C 0.18930562 1.142663 -0.86782354
C -0.7195166 0.1509213 -0.8002427
C 1.2117267 0.99084365 0.21421497
O 0.8306929 -0.21572338 0.96935296
O 2.1702058 1.604559 0.54029834
H -1.0116875 -2.343599 1.1871945
H 0.27659628 1.9815551 -1.5477654
H -1.6377902 -1.0684797 -0.53247684
