11

C 0.34921193 -1.7510254 0.98312724
N 0.4693371 0.23761605 -0.49287128
C -0.1090772 -1.2077159 -0.2422879
C -0.38505515 1.3685478 -0.1563637
N 0.80402374 -2.1911867 1.9598862
H 1.4084244 0.28907382 -0.11295518
H -1.1836251 -1.1427656 -0.3710489
H 0.119734645 2.3071458 -0.40291372
H -1.307173 1.2926171 -0.7384631
H -0.6322461 1.340707 0.91176236
H 0.46644482 -0.543014 -1.337872
