11

C -0.34139687 -1.2816459 -1.1098135
N 1.4727507 0.25016117 -1.6691622
C 0.67182714 -0.2797883 -0.91812664
C -0.2760263 1.103262 1.0333529
N 0.30768257 -0.12864824 0.5240664
H -0.8813363 1.5528073 0.2407051
H -0.12092384 -2.3490624 -1.1043317
H -0.9138915 0.8943748 1.898407
H 0.4965947 1.8235322 1.3261007
H -1.3502903 -0.9863941 -1.3859031
H 0.93501 -0.5985983 1.1647054
