11

N -0.08709196 -0.5231216 -0.060885202
C 0.8632871 -0.45465875 0.94409406
O -0.17057636 1.7186837 -0.30274022
N 1.2847567 -1.5293651 1.4734603
C -0.6605575 0.5392192 -0.7359995
N -1.5343852 0.508353 -1.6551741
H 1.9749442 -1.3179231 2.188793
H -0.3885852 -1.4539644 -0.31061986
H -0.6310508 2.386605 -0.83318055
H 1.169037 0.5621231 1.1929601
H -1.8197781 -0.4359515 -1.9007078
