9

O -1.1177083 0.36495373 -1.0503583
C 0.074081704 -0.09229513 -0.5129409
C 0.4858804 0.74137545 0.7033687
O -0.22853933 1.6265413 1.0972505
C -0.00512315 -1.5057008 -0.068852425
N -0.053754583 -2.5920753 0.31659245
H -1.4780352 1.000741 -0.40847346
H 0.8781407 -0.026445908 -1.2598526
H 1.4450579 0.48290616 1.183266
