11

N -0.4006852 -2.2024946 -1.8170091
C -0.160393 0.12998232 0.8781128
C 0.8623416 -0.44607195 -0.27997914
C 0.14230072 -1.4356797 -1.1409733
C -0.8611244 1.1378462 0.15844351
O 1.2253491 0.66091126 -0.85915285
H -0.66163397 1.2982554 -0.8934957
H 0.6456543 0.58527905 1.468648
H 1.6381869 -1.0118084 0.26801905
H -0.7926537 -0.44466096 1.5692357
H -1.6373426 1.7284416 0.64815116
