11

N 0.7413916 1.7359233 2.3397684
C 0.25202903 1.3205793 1.381319
C -0.34550372 0.7806303 0.14597754
C 0.5784675 -0.11807988 -0.7003757
C -0.40206245 -1.2320998 -0.31196138
O -1.2405332 -0.3008205 0.40191475
H -0.83262503 1.6022494 -0.39088148
H 0.58984524 0.14459276 -1.7599348
H 1.5984533 -0.2222491 -0.3291843
H -0.94034 -1.7102095 -1.1343559
H 0.0008778069 -2.0005164 0.3577135
