10

O 2.1092267 0.33948126 0.86555743
C 1.276167 1.3005908 0.49388337
C -1.4845295 -0.79796124 -0.5927325
N -0.91019464 1.3327918 -0.44199368
O -1.8887818 0.4711568 -0.82322526
C -0.24743356 -0.8039901 -0.064151675
C 0.071813576 0.59202427 0.010569059
H 0.3610282 -1.6432453 0.2301933
H -2.198568 -1.5619746 -0.8626278
H 2.9112723 0.77112645 1.1845278
