10

O -1.58920771 -1.01773796 0.95174240
C -1.70252608 0.24504426 0.48297012
C -0.54405451 0.64038864 -0.07513994
N -0.33638330 -1.48055783 0.70352073
O 2.11008259 0.36467786 -0.85313300
C 1.70269038 -0.76270498 -0.28841967
C 0.29749615 -0.50821907 0.09471546
H -2.66909784 0.70341974 0.63143499
H 3.03005715 0.23203409 -1.11272739
H -0.29905671 1.58365542 -0.53496363
