9

N 0.8456131 0.32459158 -0.953063
C -0.31592464 0.5591587 0.69857216
N -0.84376025 -0.7488633 0.45613667
C 0.56959444 -0.50942445 0.22274
O -0.13077863 1.3025742 -0.49924368
H -0.49990985 1.1109364 1.6106958
H -1.41857 -0.80966175 -0.38422802
H 0.4671014 -0.084749915 -1.811268
H 1.3266344 -1.1445613 0.65965796
