10

O -2.11172350 -0.78759752 -0.41307023
C 1.10380868 0.59719198 0.59649979
C -0.57765409 -1.42900330 -1.25208408
C -0.89579358 -0.46319931 -0.29589788
N -0.33347701 0.37554998 0.56431951
H 1.57068918 -0.12271376 -0.08354650
H 1.49379788 0.42375156 1.60442830
H -0.67553824 -0.99338086 -2.25799562
H -0.93452688 0.78840026 1.26410319
H 1.36041784 1.61100116 0.27324380
