11

C -0.53725934 -0.20544271 0.964666
C -0.5968843 0.5270384 -1.468384
C 0.38695356 -1.1148484 0.20450494
O 1.2871153 1.1336443 -0.109733514
C 0.18806635 0.29342437 -0.26137483
N -1.2243388 0.7476467 -2.4143407
H -0.042944327 -1.916161 -0.38758186
H 1.3615942 -1.3173853 0.6333997
H -1.6063303 -0.38011718 0.89826876
H -0.18429376 0.19669244 1.9096904
H 0.96832126 2.0355086 0.030884944
