11

N 0.9647651 1.1907203 1.2693051
C -0.37380028 -0.8752987 -1.5154212
C -0.026697075 0.8189654 0.40341267
C -1.1656086 -1.2668949 -0.5728298
C 0.09209295 -0.59497845 -0.115328625
O -0.9437433 1.5554439 0.0932522
H 0.9917509 2.1604092 1.546647
H 1.7985476 0.63826585 1.3768089
H -0.14910543 -0.7346067 -2.5612357
H -2.0929015 -1.7006298 -0.23705505
H 0.9046996 -1.191396 0.3124443
