11

N 1.1204511 0.07233357 1.4837177
C 0.117180064 0.5772208 0.8181121
C -0.50322217 0.3406495 -0.99886864
C -0.36648452 -1.082255 -1.0138446
C -0.89990544 1.0874782 0.21854527
O -0.15936427 -1.8250916 -0.042705216
H -1.71314 1.7677101 0.44857436
H 1.2442211 -0.93022716 1.3162955
H 1.9244903 0.63547564 1.7300704
H -0.3372238 0.87861913 -1.9321442
H -0.4270024 -1.5219129 -2.027753
