11

N 0.5647394 -1.4124721 -1.3636554
C 0.17534147 -0.4413329 -0.44891563
C -1.0233989 0.101623215 -0.10675838
C -0.7128475 1.131235 0.8548026
C 0.627381 1.1205376 1.0123465
O 1.1886514 0.15515006 0.21359442
H 1.4349797 -1.8562037 -1.111208
H -0.16042538 -2.0972917 -1.5351309
H -1.9977677 -0.17413858 -0.4814173
H -1.4153464 1.7824256 1.3540657
H 1.3186926 1.6904675 1.6122763
