12

N -0.47730732 -1.6331917 -0.97461045
C -0.114636205 -0.51164883 -0.24511854
C -0.57017523 0.17454162 1.0237293
N 0.8484311 0.637698 -0.5142707
C 0.8639867 -0.18957768 0.7215717
N -0.7596498 1.5969447 0.78736293
C 0.10151456 1.8035128 -0.12382978
H -1.0375168 -1.4099332 -1.7892857
H 1.7142482 -0.6655405 1.1864356
H 0.29816335 2.754984 -0.60547966
H 0.30565983 -2.2186592 -1.2313437
H -1.1727184 -0.33913013 1.764839
