12

N 0.93045175 -0.3771334 -1.2482125
C 1.2324804 0.920145 -1.2335329
C -0.43490675 -0.507527 -0.76544046
N -0.3486259 -1.0792426 1.6937277
C -0.5175771 0.9364743 -0.060522065
N 0.41093364 1.771211 -0.64212215
C -0.14633353 -0.39304364 0.59351134
H -0.057234056 -0.7124551 2.5900896
H -1.166491 -1.1236799 -1.2883422
H 2.1662655 1.2581029 -1.6790447
H -1.4282348 1.3557956 0.37025836
H -0.6407281 -2.0486474 1.6696302
