10

N -0.8238225 0.8738682 1.3526359
C -0.17161024 0.17652328 0.35154754
C 0.3509089 -1.0669802 0.21416429
N 0.98657894 -1.1467912 -1.0259144
C 0.810114 0.008476447 -1.5527349
O 0.11316408 0.8813043 -0.7728496
H -1.4997966 1.5372365 1.0026234
H -1.2340204 0.26758417 2.0497231
H 0.33250004 -1.9041176 0.896311
H 1.1359837 0.37289587 -2.5155063
