11

C 0.09276982 -0.02390662 -1.33694507
C 0.16015746 0.68251787 -0.07465674
C 0.69858312 -0.06824883 1.00892742
C 0.36700539 0.39392072 2.22939557
O 1.18298172 -0.14526604 -1.87478533
N -1.09973819 -0.40818569 -1.88693639
H 1.19159591 -1.03333611 0.87901090
H -1.94157078 0.00999842 -1.52062300
H -1.07376362 -0.59618602 -2.88014744
H 0.52727673 -0.18143025 3.13750683
H -0.10529756 1.37012266 2.31925270
