12

C 1.7205118 0.09385284 1.1684549
N 0.8232983 -0.30752206 0.361085
C -0.2030785 0.6031281 -0.03285263
N -0.5621805 0.6028431 -1.4497612
C -1.4181147 -0.101959385 -0.5207623
O -1.4316849 -1.4766364 -0.4947471
H 0.01726051 -0.058953058 -1.9638789
H -0.2347242 1.5758446 0.46304765
H 1.7540737 1.1139408 1.5667027
H -0.5521548 -1.756399 -0.19669585
H 2.4963894 -0.6043453 1.4805901
H -2.4095964 0.31620583 -0.38118216
