12

C 0.3467768 1.1051145 -0.6910994
N -0.8833938 1.637612 -0.09855451
C 0.31256285 -1.4737846 0.610049
N -0.56095964 -0.4793524 0.8958537
C -0.9868133 0.20635071 -0.15836926
O 1.3980417 0.74275845 -0.07070617
H -0.6979231 1.8928143 0.87336403
H 0.6484371 -2.0748863 1.4564565
H 0.2643964 -1.9937892 -0.35682547
H -1.4126098 -0.25542703 -1.0489875
H 0.37148848 1.2100857 -1.7805768
H 1.1999962 -0.5174967 0.36939597
