11

O 1.45422607 0.86597277 1.90947472
C -1.09013652 0.64283741 -0.19279413
C 1.13432768 0.08176017 -0.36748011
C 0.85537480 0.39440319 0.98670063
N -0.61244967 -1.22629235 0.35143484
C -0.20088161 -0.40756102 -0.83712768
N -0.66567337 0.08040253 1.04317614
H -1.03822667 1.71349010 -0.35976249
H 2.06898584 0.14565023 -0.90996633
H -0.31278723 -0.81679734 -1.83908763
H -1.59275928 -1.47386583 0.21543197
