11

O -0.28304425 1.6404887 2.164534
C -0.21550125 0.86737436 1.2343206
C 0.75288606 1.0186212 0.13838516
C 0.78208125 0.13713157 -0.8703282
N -0.1045352 -0.92013717 -0.8787476
C -0.9927276 -1.0434526 0.1504748
N -1.0857593 -0.24766243 1.1505588
H 1.4360701 1.8578491 0.17062947
H 1.4683641 0.18546574 -1.710134
H -0.09835587 -1.5944659 -1.6260427
H -1.659478 -1.9012127 0.07634959
