11

O 1.6475013 -1.8948116 0.57011324
C 0.8764642 0.23338182 -0.3443759
C 0.12011955 1.2042432 0.2924758
C -0.9000848 -0.38870546 -0.51676804
N -0.60774225 -1.5847969 0.013712591
C 0.6950012 -1.2598102 0.20910637
N -1.1570346 0.71605575 0.3874929
H -1.2586563 -0.21492812 -1.5408323
H -1.5731144 0.5080102 1.2889595
H 0.37817612 2.227711 0.554158
H 1.77937 0.45365062 -0.9140422
