9

O -1.32078793 -0.65527158 0.86199816
C -0.60641517 0.29820372 0.14381383
C 0.85403831 0.18849897 0.32293713
C 2.03351587 0.06932626 0.50420405
C -1.19944979 0.15637438 -2.39932954
N -0.92238863 0.23547605 -1.25911297
H -0.96914677 -1.53108638 0.65061865
H -0.95543188 1.26626377 0.51202105
H 3.08606598 -0.02778520 0.66284979
