10

O 1.0028365 1.1065804 -0.44761956
C -0.9369217 0.42298448 -0.40600687
C 0.5284414 -0.37119502 0.8911985
N 0.34580755 -0.35462925 -0.60075337
C 0.019473927 1.0829394 0.6264398
H -0.11514242 -1.1117774 1.3822685
H -1.7664083 -0.2127797 -0.074571386
H 0.535975 -1.1260602 -1.2750223
H 1.5753415 -0.46468458 1.1802206
H -1.1894034 1.0286219 -1.2761538
