10

O 0.79546696 1.9345527 -0.7584747
C 0.35502762 0.8904818 -0.3759622
C -0.9286903 0.4416076 0.3273673
N -0.50721574 -0.95612586 0.09519675
C 0.8327543 -0.56569296 -0.38897657
H -0.9556836 0.7659315 1.3765703
H -1.8720118 0.7267326 -0.15185566
H -0.49316934 -1.5286115 0.92989856
H 1.6640054 -0.72972655 0.31116477
H 1.1095164 -0.979149 -1.3649287
