11

C -0.08791846 -1.2686492 -0.026314763
N -0.6680153 -0.20566659 0.8337779
C 0.56676066 -0.6239321 -1.2373488
C 0.050742585 0.98399186 0.4586961
N 0.579859 0.63832694 -0.8970068
H 0.70729774 -1.8065014 0.51045007
H -1.6432725 -0.09480287 0.57158846
H -0.84613806 -2.0113313 -0.29391822
H -0.58945817 1.8747338 0.43687811
H 0.90493375 1.1756659 1.1203017
H 1.0252087 1.3381648 -1.4771036
