11

C 0.84988070 -1.23121314 0.05794830
N 0.98991282 -0.19587119 -0.72802893
C -0.32663942 -0.81086322 0.92395908
C 0.07340717 0.96353310 -0.49742567
N -0.95836864 0.39521597 0.33024624
H 0.63732448 1.74623518 0.02552572
H 1.75188274 -0.13447126 -1.39154499
H 0.08291935 -0.58053024 1.91843312
H -0.31728360 1.37379458 -1.43700030
H -1.06288501 -1.60880896 1.06292060
H -1.72015034 0.08297928 -0.26503316
