10

O 1.6298769 -0.93520993 -1.5414616
C -0.050771676 0.41128978 2.4098084
C -0.48965463 -0.11905709 0.10794792
N -0.4658372 -0.35405803 1.2961956
O -0.7305868 1.2532454 2.923105
C -0.5217493 0.028606903 -1.2063682
C 0.61522955 -0.46508312 -2.0032613
H 0.93144494 0.0762145 2.7838767
H -1.3859972 0.48863712 -1.6706051
H 0.46804544 -0.3845854 -3.0992377
