17

C -2.4816074 -0.9247571 0.59933746
N -1.3249574 -0.419397 -0.118991144
C -0.2643956 0.07150614 0.6221762
O -0.35032025 0.21646439 1.8344983
N 0.8585799 0.41929626 -0.09508329
C 2.0677195 0.7585156 0.6270884
C 0.9348783 0.34814155 -1.5400449
H -2.264831 -1.8320093 1.1788619
H -2.8355396 -0.160156 1.294249
H -3.2745445 -1.1387076 -0.12121117
H -1.0912133 -0.9279478 -0.95748323
H 2.855536 0.009907962 0.46114188
H 1.8330561 0.79961634 1.689973
H 2.4481008 1.735747 0.30456427
H -0.020580065 0.6387582 -1.9872724
H 1.6931813 1.0563111 -1.8887753
H 1.2169378 -0.6512895 -1.903029
