17

C -1.1641123 -1.3236302 1.4307768
N -0.23399149 -0.6593877 0.5314414
C -0.7194826 0.2576423 -0.3487873
O -1.860932 0.6670347 -0.3650961
N 0.22120589 0.74253994 -1.3022016
C 1.1614859 -1.0697803 0.59314936
C 0.32439226 2.4634817 -1.6222262
H 1.0989072 0.25282168 -1.4068353
H 1.835419 -0.21942791 0.44207066
H -2.1554036 -0.9072211 1.2597493
H -0.86985373 -1.160197 2.4727106
H 1.3994648 -1.8584933 -0.1370277
H -0.08623963 1.206145 -2.2467833
H -0.44698885 2.7954116 -0.9210907
H -1.1783298 -2.4017382 1.2287828
H 1.3600402 -1.4626966 1.5935158
H 1.314419 2.677496 -1.2021478
