11

N 2.041286 0.95864266 -0.37120402
C 0.94019246 0.39528388 -0.14864539
C -1.473211 0.30523342 -0.20010501
C -0.33922723 -1.4471359 0.6628863
C -0.35320136 0.98433024 -0.474284
N -1.4789056 -0.96102625 0.38892028
O 0.8684994 -0.8702484 0.44364098
H 2.823614 0.381759 -0.06540812
H -0.34795097 1.9641736 -0.93187904
H -0.22615345 -2.423235 1.1239007
H -2.4549422 0.7122227 -0.42782253
