11

N 1.1696484 -0.19518684 0.8871865
C 0.13995834 0.5666472 1.4457576
C -0.025105301 -0.4953909 -1.1498682
C -0.91378105 0.79852533 0.67220104
C 1.1950269 -0.73121464 -0.3233557
N -0.12300077 -0.99974436 -2.2987962
O -1.0362737 0.31604153 -0.59175944
H 2.1084616 -0.84700406 0.6798868
H -1.002657 -0.73226374 -2.7377777
H 0.26272717 0.9297673 2.4567845
H -1.7750047 1.3898232 0.95974106
