11

N 0.96519524 0.46236345 -2.142079
C 0.5817351 0.24224353 -0.9594105
C -0.7983248 -0.11984316 -0.6429829
C -1.1496924 -0.34257248 0.6264876
C -0.12361723 -0.2085646 1.642324
N 1.0989354 0.10811293 1.4163964
O 1.4603556 0.33573014 0.10363954
H 1.9568548 0.7020767 -2.1659582
H -1.480316 -0.18841583 -1.482488
H -2.1604748 -0.61477196 0.91438
H -0.3506508 -0.37635884 2.6896906
