11

C -0.73081654 -0.17223284 -2.3154178
C -0.1633299 -0.12075306 -0.97006625
C 0.32003346 -0.08638788 0.13373473
C 0.97805536 -0.098356076 1.4400731
O 2.0863345 -0.56340593 1.6093969
N 0.2435643 0.47061118 2.441396
H 0.00818252 0.15189277 -3.055219
H -1.6075621 0.47568026 -2.4012935
H -1.0313729 -1.1936532 -2.562857
H 0.61456203 0.40286574 3.3767
H -0.7176508 0.7337391 2.3035522
