11

C -1.02599768 1.40329347 -0.53194692
C 0.20243577 -0.66075470 -0.63606331
C -0.19004970 0.61252855 0.09169142
C 0.52669441 0.88870092 1.38947677
O 1.29560134 -1.15977638 -0.47382229
N -0.75586376 -1.16809182 -1.45007451
H 1.59851619 0.74559990 1.22301462
H -1.66834152 -0.75103902 -1.51351913
H -0.52962187 -1.98447135 -1.99886069
H 0.20848966 0.17229342 2.15410460
H 0.33813710 1.90171706 1.74599882
