11

C 0.15962021 0.6250513 -0.05957892
C 1.3785621 0.6414778 0.82819974
C -0.40481198 1.6510828 -0.64414597
C -0.390826 -0.7427532 -0.42157596
O 0.32349366 -1.7226 -0.41972944
N -1.7110043 -0.76023054 -0.7300674
H 2.102711 -0.072464034 0.42460972
H -2.1173372 -1.6343262 -1.0295295
H 1.1120852 0.3126599 1.8381594
H 1.8255095 1.6346517 0.8802302
H -2.2780025 0.067450136 -0.666572
