11

N 1.4735699 0.3685433 1.3614634
C 0.4362605 0.20063749 0.44222692
N -0.2768732 1.2328542 0.023289647
N -1.2125429 0.68641716 -0.7799294
C -1.0992498 -0.6525938 -0.8908896
C -0.030050911 -1.0220658 -0.10501084
H 2.2827394 -0.19803745 1.1532013
H 1.7343007 1.3429621 1.4436561
H -1.8882972 1.2908092 -1.2143893
H -1.7750033 -1.2335285 -1.501752
H 0.35514665 -2.015998 0.06813357
