12

C -0.17399966 -0.21869430 -1.68168396
N 0.28981395 -0.53651092 0.75025414
C 0.51968168 0.21369604 -0.45000562
N -0.57649290 1.00420637 -0.98562766
C -0.00393190 0.05409757 1.94694556
O -0.02278018 -0.54076366 3.00394008
H -1.43106321 0.83589410 -0.46055081
H -0.81130031 -1.09744344 -1.60173150
H 0.66716247 -1.47466276 0.81080630
H 0.29130034 -0.06425576 -2.65202521
H -0.24206030 1.12767917 1.84203343
H 1.49367008 0.69675744 -0.52235483
