12

C 0.6562286 0.2870218 -0.072267585
N -0.039194204 -0.842286 0.4730068
C -0.810781 -0.7632827 1.5979902
N -0.13101843 1.4078648 -0.5594527
C 0.5413752 0.53709847 -1.5246646
O -1.2570814 -1.7313594 2.176865
H 0.29278934 -1.7703624 0.23923665
H -0.999661 0.2796138 1.9094069
H -0.05894462 -0.1679201 -2.0967743
H -1.1237742 1.1888036 -0.5316442
H 1.3644953 0.99789995 -2.0650837
H 1.5655663 0.57690835 0.45338142
