9

N 0.07365348 -0.5391002 0.65050226
C 0.18935789 0.35711882 -0.27144837
N 1.2617517 1.1599076 -0.34863472
C -1.1026676 -1.2781718 0.59640026
O -1.3852828 -2.157731 1.3735536
H -0.5673273 0.52928483 -1.0466826
H 1.3375762 1.8698177 -1.0570843
H 1.9936928 1.0681455 0.33689538
H -1.8007542 -1.0092715 -0.23350151
