9

N 1.24878783 -0.15933651 -1.21412110
C 0.14414326 -0.02449157 -0.46443232
N 0.19010120 -0.03693962 0.82565369
C -1.04058059 0.12682572 1.45134403
O -1.19402568 0.14167880 2.64871491
H 1.20975163 -0.12896623 -2.21869879
H -0.78415755 0.09731661 -1.03594093
H 2.14093599 -0.26401490 -0.75890285
H -1.91495592 0.24792771 0.76638322
