9

N 1.2662827 -0.15741086 -1.564831
C 0.21997614 -0.022396965 -0.8625533
N 0.29291847 -0.038185634 0.52267337
C -0.7834783 0.09229809 1.3656029
O -0.70984095 0.076815255 2.5695984
H 1.0418705 -0.12647997 -2.5532963
H -0.8003273 0.11365204 -1.2347655
H 1.2096474 -0.15411265 0.9388369
H -1.7370485 0.21582071 0.8187344
