9

N 0.62390894 0.03690476 -1.6477861
C 0.29990986 -0.49863777 -0.513337
N -0.19482933 0.50540185 0.2156048
C -0.64965045 0.34214923 1.5046451
O -1.09617 1.2174702 2.2050471
H 1.0387707 -0.44889233 -2.4264784
H 0.14370823 1.0925627 -0.98996055
H -0.56493086 -0.7110329 1.8534896
H 0.39928275 -1.5359257 -0.20122495
