11

N 1.2866349 1.2941488 -0.17128715
C -0.14327942 -1.556736 -0.27729523
O -0.92471004 1.8527873 -0.21350472
C -0.46199188 -0.33481583 0.47422302
C 0.075548746 0.9810594 0.017757937
O 0.51190776 -1.2486453 0.93966204
H -1.3843402 -0.29602578 1.0524603
H -0.8306202 -2.399878 -0.24267262
H -0.50571054 2.666497 -0.5297417
H 0.4832295 -1.4847544 -1.1668684
H 1.8933313 0.5263631 0.11726651
