11

N 0.99597987 0.51533935 -1.44984112
C -0.31438827 -1.33983030 0.79174710
O 0.92209593 -0.74414318 1.14022780
C -0.12073802 0.11523137 0.72288977
C 0.09711669 0.77524806 -0.59838053
O -0.83595577 1.72059018 -0.82112178
H -0.29982711 -1.92163798 -0.13038250
H -0.88249116 -1.76477718 1.61709779
H -0.55249169 0.74279589 1.50156878
H -0.64910994 2.08236934 -1.69969697
H 1.63980947 -0.18118579 -1.07410877
