11

O -1.51021614 -0.07489117 -0.07086574
C 0.55433714 0.39198328 0.11863865
C -0.55146011 -0.23415545 0.98568649
C -0.48392681 0.27373582 -1.01155587
O 1.79254569 -0.24505744 0.00425269
H -0.73162431 1.17758646 -1.57993095
H 0.77542241 1.42705929 0.38820915
H -0.85070913 0.29157633 1.89971269
H -0.36649680 -1.29390884 1.22249496
H -0.26866444 -0.54696034 -1.71324699
H 1.64079267 -1.16696809 -0.24339518
