11

O -1.1207798 1.2515463 -0.4871888
C -0.61404306 0.73126566 0.718206
C 0.4636484 -0.2981966 0.4536547
C 0.427496 -1.1359503 -0.7419546
O 1.2813338 0.008514561 -0.6695619
H -0.3466654 1.426934 -1.0406169
H -0.19608289 1.5243112 1.3580143
H -1.4473102 0.27035844 1.2580203
H 1.0126691 -0.6523865 1.3271898
H -0.40716144 -1.0332909 -1.4315418
H 0.94689566 -2.093106 -0.7442212
