14

C -2.3927073 -0.07587017 0.9748707
N -1.3503009 0.1376921 -0.013008722
C -0.035334382 0.038328815 0.34618533
O 0.3575955 -0.07794643 1.4927074
N 0.8433826 0.1066506 -0.73646265
C 2.2142086 0.0033238588 -0.59247404
N 2.9635406 0.10951975 -1.6157182
H -2.0398467 0.2942413 1.9374449
H -2.6510458 -1.1370033 1.0810214
H -3.2870178 0.47966796 0.6812408
H -1.5949452 -0.018897371 -0.9792651
H 0.5160756 0.30356202 -1.6727924
H 2.5194082 -0.17071314 0.4414696
H 3.9369867 0.0074439435 -1.345219
