11

O -0.19672649 -0.67891043 1.0746722
C 0.88064516 -1.1698856 1.5983119
O 1.8836094 0.50008804 -1.1708637
C -1.3411797 0.70904815 -0.7874552
C -0.25910604 0.027643062 -0.020549837
C 0.6971541 0.53244746 -0.9681434
O -0.300528 1.1746099 -1.6968474
H -2.0582633 0.07527901 -1.3164086
H 1.8262166 -0.99614143 1.0941776
H -1.8443561 1.5557717 -0.31277183
H 0.71253437 -1.72995 2.5058787
