11

O 0.0060796253 1.9155926 -1.2506024
C 1.1862531 0.040834837 1.1129925
O 1.3195348 1.3955632 0.6062935
C 0.055399146 -0.14453869 0.14648539
C -1.5581796 -0.92360336 -0.85053974
C 0.35274965 1.1893893 -0.36630672
O -0.30433008 -1.2381837 -0.56178117
H -1.8820181 -1.1413085 -1.8610642
H 2.0868995 -0.54754514 0.90783453
H 0.95648646 0.042853314 2.1815917
H -2.2188745 -0.5890541 -0.064903416
