11

O 0.26028918 1.46950849 -1.45674674
C -0.49538200 0.23287900 -1.61924739
O -0.37087379 -1.06589946 0.61713202
C 0.05005306 -1.14692065 1.83870518
C -0.11456067 -0.09423926 -0.21521430
C 0.60580042 1.14817199 -0.14674043
O 1.26732649 1.77594286 0.63945664
H -0.06186824 -0.38068377 -2.41377270
H -0.27222244 -2.03775983 2.35654194
H -1.54765688 0.44892749 -1.82294367
H 0.67909470 -0.34992697 2.22282946
