9

N 1.77225310 -1.54850884 -1.09821902
C 1.13132484 -0.65313266 -0.74767323
C 0.36447899 0.47826915 -0.23763670
C -0.00985312 0.63530359 1.20774295
N -1.01243784 0.11133507 0.13248954
H 0.44887154 1.36618015 -0.86295915
H 0.31200768 -0.27492531 1.73128560
H -1.75255188 0.75241686 -0.12672629
H -1.25409319 -0.86693770 0.00169611
