11

N -1.3986644 -0.62516767 0.3907897
C 0.5770778 0.50989896 -0.2010823
C -0.8000902 0.6071681 0.25757822
N 0.33181295 -1.5282592 -1.0136067
C -0.7379006 -1.6211976 -0.11785528
N 0.96397585 -0.41286632 -1.1185715
N 1.3084649 1.2915399 0.54541075
H 2.255743 1.5471791 0.26844472
H -1.4524362 1.4046538 -0.100260876
H -1.1097819 -2.6334372 0.0061662304
H 0.061798558 1.4604882 1.0829868
