10

N 0.82564145 -1.5076708 -0.4555122
C -0.20520492 -0.6464422 -0.36320233
O -1.3322107 -0.8198097 -0.782195
C 0.20547614 0.6478696 0.3636861
O 1.3329751 0.81929606 0.7843592
N -0.8254503 1.5085758 0.45303696
H 1.7136313 -1.2360175 -0.05988213
H 0.7006613 -2.3972983 -0.90728915
H -0.7033238 2.3977792 0.9073151
H -1.7121955 1.2337178 0.059683383
