10

N 1.36470816 -1.34862039 0.12203470
C -0.96822516 1.37541223 -0.05673247
O -2.28435384 1.11841878 -0.16923004
C 0.99959160 -0.01835688 0.20692362
O 1.76970290 0.87698989 0.43712183
N -0.39116883 0.15504153 0.03786357
H 2.36444136 -1.48421544 0.09518969
H 0.83817510 -1.96610293 -0.47403499
H -0.97083635 -0.68275996 0.04177023
H -2.72203486 1.97419313 -0.24090622
