10

N -0.28056315 -0.115942605 0.29381326
C -1.4333218 0.3882101 0.7920347
O 0.5607275 1.8587422 -0.56806445
C 0.6344667 0.6640216 -0.44594285
O -1.9945418 -0.6416255 1.451858
N 1.6531949 -0.10518087 -0.9756953
H 1.4652692 -1.0601511 -1.2336422
H -0.018983964 -1.0801752 0.49324465
H -2.8226404 -0.31001484 1.8170141
H 2.2363927 0.40211633 -1.6246198
