11

C 0.56322527 -0.17371707 0.73706174
C -0.1625236 -0.20487347 -0.5989626
C -1.6188669 0.18594557 -0.5916238
C 0.5205395 -0.6951577 -1.5961133
O -0.049393825 -0.33377454 1.7719724
N 1.9017633 0.03872956 0.6618157
H -1.7188112 1.2627681 -0.41949293
H 2.427547 0.045562048 1.5240325
H -2.0995398 -0.33296603 0.2433399
H 2.3495605 0.28446123 -0.2048865
H -2.1135004 -0.076977715 -1.5271431
