11

N -1.63495345 -0.75174943 0.26896939
C -0.53113456 -1.18036947 0.72871742
C 0.74587685 -0.51697809 0.35801540
N 0.52102362 1.88511981 -0.78695440
C 0.72916850 0.57136666 -0.57958739
N 1.13682762 -0.48764377 -1.12556598
H -2.40679997 -1.33165181 0.58977232
H -0.43943857 -2.04367109 1.40246024
H 1.57038528 -0.63301986 1.06096916
H 0.44874554 2.16956953 -1.75477183
H -0.13970046 2.31902764 -0.16202451
