9

N 1.0775534 -0.8264152 0.6725601
C -1.6039912 1.0399464 -0.8465181
O -1.0345521 -1.4897431 1.2683022
C -0.27632737 -0.77700084 0.64808595
C -0.5973941 2.177146 -1.7435333
C -0.8064128 0.26798943 -0.23430769
N 0.08424668 1.3531431 -1.1377988
H 1.5057055 -1.5257235 1.2585089
H 1.651172 -0.21934222 0.11470057
