10

O 1.5470951 1.7090243 0.34437537
C -0.7395704 0.79755384 0.40181008
C 0.67661256 0.88462865 0.16996707
N -0.73419744 -0.7023865 -0.20426661
C 0.7193189 -0.54665136 -0.42687333
H 1.2677281 -1.2301995 0.2267535
H -1.3101507 0.18747027 -0.6730598
H 1.0365474 -0.6760371 -1.4650835
H -1.3597383 1.0248405 1.2583095
H -1.1036454 -1.4482428 0.36806777
