10

O -0.8825869 1.2032734 1.427364
C -0.21899782 0.48838592 0.73356986
C 0.13215078 -0.67658216 -0.97355586
N 0.3069762 0.8543931 -0.6231499
C 0.09402003 -0.96574897 0.5652118
H 1.2965268 1.1208421 -0.61195964
H -0.23691173 1.5634815 -1.1172514
H -0.90817374 -0.70743686 -1.3354577
H -0.6629511 -1.6418742 0.96842194
H 1.0799474 -1.238734 0.96680695
