10

O -0.76290447 -0.58127886 2.2156098
C 0.88099533 -0.069870815 0.36006185
C -1.1435337 0.003798857 -0.14417568
N 0.10549953 0.2330131 -0.907582
C -0.5054024 -0.28425673 1.0614284
H 0.30616003 -0.42032194 -1.6685745
H 1.4663403 0.7953961 0.6784768
H 1.5198257 -0.9460362 0.23442037
H 0.26465124 1.1806543 -1.2594087
H -2.1316314 0.08890225 -0.57025605
