10

O 0.79770255 1.934275 -0.75645936
C 0.35509086 0.8903584 -0.3783759
C -0.92817193 0.44262746 0.32744393
N -0.5073106 -0.95564383 0.09472022
C 0.8330513 -0.5646471 -0.3905712
H -0.95427966 0.7650699 1.3770761
H -1.872396 0.7256354 -0.15079528
H -0.4948768 -1.5278949 0.93005204
H 1.6600853 -0.731108 0.31282893
H 1.1111051 -0.978672 -1.3659196
