10

O 0.79774845 1.9343573 -0.7555253
C 0.35514343 0.8892922 -0.37684378
C -0.9299739 0.44325903 0.32718986
N -0.5088689 -0.95568854 0.09410251
C 0.8336663 -0.56518173 -0.39128792
H -0.9576501 0.7639716 1.3777555
H -1.8721498 0.72966206 -0.15256211
H -0.4921001 -1.5258566 0.9318913
H 1.6623946 -0.73223585 0.3108698
H 1.11179 -0.9815793 -1.36559
