12

N -1.02663643 -1.16301389 2.99872558
C -0.53711865 1.01100506 0.06243717
C -0.04765943 -0.17621556 0.85584321
C 0.80914109 -0.40843420 -1.20625263
N 0.26782016 0.84099933 -1.17241764
C -0.58683750 -0.71428392 2.01688124
N 0.63464394 -0.98679668 -0.05203008
H -1.62120201 0.99090003 -0.17265448
H 1.36684080 -0.81712363 -2.03662062
H 0.04794622 1.33185003 -2.02431485
H 1.00867940 -1.88801512 0.20184849
H -0.31561767 1.97912867 0.52855505
