12

N -0.9262266 2.0804522 1.7885826
C -0.8577792 1.2762477 0.963334
C -0.7611932 0.22353956 -0.06670416
C 0.3943679 0.47642124 -1.0834008
N 1.4872086 -0.41226447 -0.67908514
C 1.0055592 -1.1966954 0.19522448
N -0.34533313 -1.0567656 0.5079901
H -1.7326695 0.13551076 -0.56038284
H 0.07232892 0.21601433 -2.0966442
H 0.72665644 1.5174111 -1.0906918
H 1.5749365 -1.9932417 0.6691974
H -0.637856 -1.2666296 1.4525808
