9

N -0.27278936 -0.5922704 -1.3731171
C 0.041349947 2.3408537 1.6055598
O 0.41486818 -2.1551402 0.16139382
C 0.14053588 -1.0177861 -0.15187508
C 0.4401822 0.64201677 1.9552109
C 0.2430981 0.05090822 0.8473766
N -0.10045142 1.6536541 0.6052986
H -0.51623285 0.36640206 -1.5552154
H -0.39056072 -1.2886382 -2.0946321
