9

N -0.15929479 0.77891813 1.23172547
C -0.21438516 0.86534226 -0.11882150
O -0.57072155 1.83460178 -0.75232488
C 0.22688839 -0.37796742 -0.81368469
C -0.12558910 -2.15276004 -0.78396698
C 0.13875062 -0.99476809 -2.00855066
N 0.85804241 -1.54087377 -0.21622688
H 0.24800670 -0.01444592 1.69875639
H -0.40169771 1.60195302 1.76309392
