12

O 0.8734581 1.9650208 -1.2777882
N 1.0103728 1.4108964 -0.0070868335
C 0.31248826 0.36441532 0.1047354
C 0.13292949 -0.60842234 1.2424556
N -0.5642326 -1.5134581 0.2949419
C -0.585598 -0.47884148 -0.7703543
H 1.4695121 2.7236314 -1.2377868
H -0.49133983 -0.21844591 2.056709
H 1.0489489 -1.0302165 1.6669931
H -1.4873357 -1.7905743 0.6066777
H -1.563777 -0.018276883 -0.95771044
H -0.15542649 -0.80572844 -1.7217863
