12

O -1.81812540 1.27329581 1.77075967
N 0.99193236 -0.63530545 -0.88800081
C 0.33131056 0.67706388 -0.84617011
C -0.12257122 0.39236573 0.60034464
N -1.56271723 0.61190895 0.79483461
C 0.23450497 -1.07596513 0.29467099
H 1.00731364 1.52731943 -0.98295231
H 0.46936792 0.87401947 1.38617032
H 0.83724681 -1.59680478 1.04521278
H -0.66773630 -1.66211161 0.07385143
H -0.53366384 0.78343790 -1.51450128
H 0.83313773 -1.16922422 -1.73422011
