13

N -1.0297788 1.2598087 -0.6740091
C 0.035637185 0.9551718 0.28448272
C 1.042114 -1.0595537 1.3888837
N 1.8322589 -1.515379 2.1086495
C 0.041727677 -0.5313706 0.52936333
N 0.086842336 -1.2819982 -0.8494695
H -0.29554084 -0.63346344 -1.5355277
H -0.053491432 1.4695587 1.2519249
H -0.98810625 2.236531 -0.9487949
H 0.9836808 1.2851913 -0.17764072
H 0.9652918 -1.728093 -1.100299
H -0.6898628 -1.5640038 -0.04819376
H -1.9307725 1.1076 -0.22936927
