11

N 1.3472238 0.56876785 1.8403523
C 0.6395183 0.26634932 0.8364831
C -0.7681259 -0.17663167 0.8536233
C -1.1579661 -0.39704752 -0.39841914
C -0.012655302 -0.108540006 -1.3249348
O 1.0547528 0.29580683 -0.46791002
H 2.2849758 0.84449726 1.5541266
H -1.3301516 -0.28076532 1.7723516
H -2.1307216 -0.7273073 -0.7413568
H -0.23132794 0.7021905 -2.027861
H 0.30447778 -0.98731995 -1.8964549
