11

N -2.51773340 -0.55708165 0.41316490
C 0.91012963 0.40412174 0.13201848
C -0.05708166 -0.31665177 1.00397492
C -1.34202021 -0.39260661 0.71919359
C 1.12817936 0.02400553 -1.26876233
O 0.36384475 1.17518053 -0.92287289
H 1.73157122 0.88877494 0.66109733
H 0.31178645 -0.79000913 1.90657001
H -3.16303226 0.13867191 0.78802521
H 2.08515901 0.22504463 -1.74928368
H 0.54919714 -0.79945011 -1.68312530
