11

N -2.2951071 -1.2269435 -0.2170709
C 1.5272776 0.027485903 -0.74147856
C -0.40942997 -0.004992659 0.9715114
C 0.6717802 0.70792145 0.23798688
C -1.4138259 -0.59175843 0.35116363
O 0.4785011 0.89967835 -1.151843
H 1.0825917 1.5753137 0.75610274
H -0.36803484 -0.035904147 2.0541654
H -3.1610072 -0.71273834 -0.3808206
H 2.537418 0.3885286 -0.9322457
H 1.3498362 -1.0265908 -0.94747156
