11

O -1.04648690 0.45957652 2.70829533
C 1.03769453 0.13015067 -2.66191994
C -0.17013238 -0.62217398 -0.63077731
C -0.11516354 0.24736284 0.53742696
N 0.60371680 1.29864827 0.58966833
C -0.98415958 -0.18757524 1.69306498
N 0.50246786 -0.31097710 -1.68293507
H 2.05252975 -0.10265701 -2.97038906
H 0.44335050 1.74105526 1.50220746
H -1.56248943 -1.12549783 1.56555968
H -0.76132758 -1.52791260 -0.65020167
