11

C -1.306759 -0.7886091 0.6809804
N -0.12798095 -0.052395772 0.26673275
C 0.39685318 0.10139161 -0.97121793
C 1.488507 0.90536374 -0.7676635
N 1.569006 1.1936744 0.5554749
N 0.5914613 0.61437976 1.1731749
H -1.3683772 -0.7080223 1.766195
H -2.2018113 -0.35676673 0.22792982
H -1.2177565 -1.8397248 0.39533654
H -0.031362414 -0.35565823 -1.849259
H 2.2082202 1.2863673 -1.4776835
