11

N -0.231241 0.43503964 1.8496009
C 0.67481226 0.7626267 -0.15541498
C 0.10001627 -0.20342937 0.7670004
N 0.18412206 0.63279206 -1.431682
C -0.5212098 -0.43659458 -1.6541989
N -0.20957269 -1.4775084 0.3877
N -0.58865523 -1.5592086 -0.84088624
H 0.26819894 1.4409735 1.0575083
H -0.42732227 -0.04666566 2.7249343
H 1.7301307 1.0335974 -0.07689707
H -0.97927916 -0.5816228 -2.627665
