11

N 1.42277428 -0.31364252 1.01279708
C -0.84213961 -0.43933856 -0.56317624
C 1.37466125 -0.99307948 -0.25017873
N 0.52558352 0.51953471 1.28546254
C -0.49991484 0.73591149 0.30759771
N -1.06146360 1.86651478 0.21512838
N 0.35239637 -1.15608288 -0.98087681
H -1.39248611 -0.09101550 -1.44066660
H -1.48864066 -1.14949577 -0.02866863
H 2.31832876 -1.46756301 -0.50517000
H -0.70909937 2.48825709 0.94775118
