11

N -1.0885845 0.74334484 0.42143455
C 0.14620934 0.86491984 0.11532235
N -0.05665041 -2.5150397 -0.34874314
N 0.9177123 1.9856366 0.19812584
C -0.19182958 -1.2757571 -0.1746833
N -1.345705 -0.601073 0.15639962
O 0.7690821 -0.27725655 -0.283838
H -2.0784044 -1.0472388 0.6824006
H 0.37539437 2.8283653 0.31273487
H 1.6534514 2.0521646 -0.4895549
H 0.8993241 -2.7580662 -0.5895984
