10

N 1.268708 -0.0362749 -1.1174479
C -1.8456951 0.271452 0.44834054
O -0.8508272 0.08725568 -0.46931967
N 0.7175591 -0.121233165 1.2085279
C 0.44135845 -0.041346703 -0.022065397
O -2.9810023 0.36779836 0.09914781
H 1.7145144 -0.19643529 1.3749056
H 2.1857421 -0.43425354 -0.99657017
H 0.82679576 -0.21743447 -2.0061362
H -1.4771533 0.32047203 1.4806173
