11

O -1.5699081 0.058466945 1.8032768
C -0.699138 0.015732411 0.784201
N 0.3980215 0.71174395 0.66209996
C 0.9206567 0.30105048 -0.54163766
O 2.0782735 0.81988376 -1.0010371
C 0.14149228 -0.639583 -1.144649
N -0.92517203 -0.8121334 -0.24831203
H -1.2240872 0.70664656 2.4308167
H 2.3717153 1.4525429 -0.3308395
H 0.2201623 -1.1830745 -2.0703163
H -1.712016 -1.4312763 -0.34360301
