11

O -2.0789979 0.3653263 0.4834147
C 0.9046946 0.5416432 -1.5052893
N 1.173489 -0.87695426 0.87522227
C -0.032045536 -0.5647814 1.1168847
O 1.6844642 1.4512339 -1.6001383
C -0.7991429 0.2132184 0.09756337
N -0.39234802 0.68832487 -0.9948615
H 1.0861393 -0.46395212 -1.9276747
H -2.519821 0.88620305 -0.20627998
H -0.59768087 -0.8209873 2.017657
H 1.5712485 -1.4192746 1.643502
