9

C 0.44680262 -0.84862113 0.35182226
C -0.049430344 -0.12774913 1.4089385
C 0.016185239 0.07474486 -1.5352927
C 0.7368852 -0.9940639 -0.87615645
O -0.37356517 1.1157904 -0.93249875
H -0.23709889 0.016791133 -2.5963762
H 0.66775376 0.4940301 1.9466729
H -0.34361696 0.7962514 0.22195645
H -0.8639154 -0.5271737 2.010934
