9

N 1.48173086 -0.17250202 -0.42727008
C 0.48647748 -0.50562300 -1.35747073
C 0.30355120 0.72495729 -0.37118085
C -0.59010772 0.40849429 0.60404603
N -1.31904056 0.16885530 1.54435215
H 1.58201816 -0.75189239 0.41414607
H 0.37973829 1.74798791 -0.72611301
H -2.24799845 -0.20684166 1.37947552
H -0.07636947 -1.41343551 -1.05998503
