9

N 1.4805676 -0.45425385 0.09703664
C -0.72160256 0.39290544 0.45263818
C 0.5350582 0.6846278 0.021889558
C 0.93095237 -0.27356556 -1.1804793
N -1.8047354 0.13717788 0.9367582
H 0.16762528 -1.0414971 -1.4192907
H 0.90386635 1.7041972 0.07510374
H 1.1310812 -1.2249386 0.6781013
H -2.622813 0.07534702 0.33824232
