12

C -0.07378056 -0.04449648 0.0842855
N -0.89720726 0.7706812 -0.4106439
C -2.205244 0.85738933 0.20943475
N 1.2052908 -0.17470214 -0.45869452
C 2.1286302 -1.0169345 0.015697908
O 3.2936666 -1.037276 -0.57300955
H -2.9710917 0.6255249 -0.53737175
H 1.4510461 0.40376794 -1.2613397
H -0.2530118 -0.7029747 0.9410716
H -2.3333209 0.18265076 1.0687996
H 3.0290227 -1.7507482 0.38241333
H -2.374 1.8871176 0.53935677
