12

C -0.24115800 0.23457988 -2.27744900
N -0.66762193 -0.04025765 -1.03884271
C 0.19976675 0.04212570 0.05655964
N -0.21273940 -0.21421554 1.21822968
C 0.73071574 -0.10663766 2.31066978
O -1.30087630 0.05993922 -3.09246188
H -1.62667142 -0.31997120 -0.83234676
H -0.98687208 0.26082098 -3.98052282
H 0.79200443 -1.07037064 2.82690616
H 1.21163266 0.33932950 -0.22647685
H 0.35779256 0.62343175 3.03656399
H 1.74402700 0.19122597 1.99917081
