10

N 0.22884357 1.7661078 0.39587027
C -0.20097063 0.47894835 0.16289683
N -1.4021565 0.0501193 0.35700682
O -1.3359506 -1.3371927 0.106665134
C -0.080948725 -1.697395 -0.2597759
O 0.28127387 -2.8099499 -0.52275336
N 0.64438105 -0.5153318 -0.2537585
H 0.74855185 2.1757436 -0.3690767
H -0.53099483 2.3671758 0.6845162
H 1.6479709 -0.4782257 -0.30159092
