10

N 0.7425728 -0.6333767 0.8124999
C 0.18559873 -0.8957917 -1.344356
N -0.44221345 0.9599748 1.5467654
O 0.06868437 -1.3527459 -2.4431667
C 0.004878203 0.4057179 0.44370812
O 0.7024921 -1.5592282 -0.27042845
N -0.18468387 0.38804093 -0.90517324
H -0.51491946 1.9630426 1.6494797
H -0.81587714 0.95840365 -1.4417648
H 0.25346768 -0.23403713 1.9524361
