11

N 0.116081074 -1.0385213 0.3326197
C -0.976405 1.7808583 0.26286075
C -0.03187599 -0.28579643 1.3330046
N -0.570557 1.043765 1.2772354
C -0.24951833 -1.0214951 -0.9318061
N 0.73757136 -0.85714376 -1.8123002
H 1.7065358 -0.6780967 -1.5628109
H -0.7646312 1.1763147 -0.6466693
H 0.18429822 -0.6388626 2.338462
H -0.67616165 1.4472991 2.2039123
H 0.52466285 -0.92832124 -2.7945087
