9

N -0.47582814 -0.76554734 -0.7854182
C 0.09553488 0.5522271 -0.8903866
C 1.4641304 0.62034297 -0.3617422
C -0.8968138 -0.14697348 0.48165232
N 2.5812888 0.7535391 -0.08018928
H -0.70562595 1.0050819 0.23738767
H 0.22795966 -1.4654675 -0.56063086
H -0.31139445 -0.41079086 1.3599163
H -1.9792515 -0.14241213 0.5994109
