11

N 2.261188 -0.64350635 0.7264933
C 1.1067303 -0.31821245 0.34122968
O 0.50975007 -0.90067583 -0.7242009
C -0.8561051 -0.49778488 -0.757817
C -0.83598334 0.80464077 0.03597144
O 0.28733054 0.61701816 0.8957728
H 2.5477836 -0.06310444 1.5082595
H -1.4738177 -1.2642776 -0.27612764
H -1.1615 -0.3763458 -1.7979908
H -0.6616893 1.6777121 -0.6018321
H -1.7236869 0.96453637 0.65024126
