11

N 0.88578403 -1.6388077 -0.20208
C 0.34497574 0.7043359 0.74444294
O -1.0105959 -0.42617494 -0.73079216
C -0.671668 0.95733124 -0.36591607
C -0.26938373 -1.1054417 0.16479914
O -0.19240597 -0.4963757 1.3278273
H 0.8959698 -1.8881682 -1.1832427
H 0.49920613 1.4998306 1.4791926
H -0.26703712 1.4806062 -1.2344415
H 1.3881211 -0.52226 0.034207564
H -1.6029658 1.435124 -0.03399737
