11

N 1.2221017 1.0775048 -1.321975
C 0.48819536 0.39447227 -0.41167718
O 0.6952088 0.48561293 0.8193464
C -1.1518588 -0.8356987 0.42164975
C -0.07824964 -0.659385 1.4970222
O -0.44266865 -0.41991988 -0.82620996
H 2.1105769 1.4233166 -0.99676764
H 1.1822248 0.74404913 -2.2734704
H -2.0595293 -0.2031446 0.47196883
H -0.5205307 -0.1323177 2.3592772
H -1.4454703 -1.87449 0.26083544
