11

C 0.24396162 -1.2246006 0.12390371
N -1.6458489 0.21143901 0.06718485
C -1.3271153 -0.946876 0.29594105
C 0.40129784 1.0850523 -0.38569227
N 0.9317951 0.007094019 0.27905825
H 0.3215698 -1.5971909 -0.90249336
H 0.7320329 2.0599158 -0.02560248
H 0.33771476 0.9794586 -1.4673537
H 0.60184216 -1.985703 0.81894654
H 1.1634655 0.21596467 1.2438753
H -1.7607155 1.1954461 -0.047767878
