12

C 0.39463149 0.08140094 0.79538794
C -0.22425201 -0.49489309 -1.12253130
N -0.36579222 -1.03601352 0.23778639
C 0.11845979 0.87256506 -0.50204027
O -0.04679595 0.56086509 2.02541023
H -0.01489566 -1.97083560 0.41476613
H -1.00987485 0.63124959 1.96775420
H 1.46420076 -0.12337441 0.93250762
H -1.12902794 -0.56319309 -1.73267382
H 0.62250303 -0.91321741 -1.68585948
H -0.75724142 1.51924533 -0.39729609
H 0.94808504 1.43620119 -0.93321179
