12

C -0.35021517 -1.1052861 0.9810096
C -0.2602326 -0.62884396 -0.46738055
N -0.26508802 0.8198402 -0.58134794
C 0.87705 1.5518981 -0.4968112
O 1.9947152 1.0824683 -0.40948996
H -0.34302545 -2.1985126 1.0276482
H -1.2708204 -0.7480512 1.456318
H 0.5056666 -0.7267968 1.5484397
H -1.0940586 -1.021019 -1.0588336
H 0.6694349 -0.97971547 -0.9257002
H -1.1442647 1.3130162 -0.53832513
H 0.6808383 2.6410024 -0.53552717
