10

N 1.0374427 1.3774506 0.48780656
C -1.0726466 -0.0374611 0.23240398
N 0.6494333 -0.707456 -0.7766403
O 0.44941017 -1.8792642 0.10944073
C -0.6473248 -1.269554 -0.5189472
C 0.19105701 0.40280414 0.08260719
H 1.8712327 1.5080285 -0.06339982
H -1.1844606 -1.8459795 -1.2665297
H -1.9406997 0.24276055 0.80953
H 0.64655596 2.2086704 0.90372866
