9

N 0.44634753 -0.6116703 -1.6206998
C -0.5431976 0.3361289 1.6294448
N -0.025323542 0.3240881 0.3413334
C -0.100409895 -0.8064368 -0.41995248
O -0.5031064 1.3030077 2.3463354
H 0.4457941 -1.3756825 -2.275556
H 0.86702734 0.25584254 -1.9490901
H 0.39690873 1.2104374 0.05238459
H -0.9840403 -0.63571525 1.8958002
