11

O -1.5020729 -1.0416191 0.37994778
C -0.16612521 -0.76928544 0.06852402
C 0.028826201 0.23486766 -1.0929594
N 0.7618559 1.0777265 -0.147766
C 0.507324 0.30497062 0.9491132
O 0.6820093 0.4402386 2.1343133
H -1.5668013 -1.1322633 1.3394729
H 0.43800646 -1.6803222 -0.036228884
H 0.6267366 -0.115488924 -1.9374126
H -0.91923064 0.65826094 -1.43411
H 1.1094718 2.0229142 -0.22289436
