11

O -1.09615020 -0.42131139 -0.13819641
C -0.35367167 -1.10731980 0.86590656
C -0.29547105 0.54995017 -0.65645010
N -0.55821543 1.31346251 -1.61742626
C 0.99011082 0.53429465 0.13791549
O 0.66538535 -0.24650823 1.27216852
H -1.00742708 -1.31722608 1.71292788
H 0.04544722 -2.03607668 0.43370924
H 1.79613487 0.07812574 -0.45474270
H -1.47619554 1.11780097 -2.01013085
H 1.29005293 1.53480770 0.45431858
