12

N -0.93226004 2.079314 1.7915438
C -0.86098224 1.2741995 0.9651566
C -0.76069444 0.22296952 -0.066079885
C 0.39694276 0.47345948 -1.0839409
N 1.4871833 -0.41064337 -0.68096244
C 1.0057744 -1.1949663 0.19554238
N -0.34511572 -1.0574698 0.50800806
H -1.73226 0.13722555 -0.5630653
H 0.07292195 0.21524599 -2.0969386
H 0.7270943 1.5149444 -1.0924039
H 1.5787864 -1.9876217 0.6714113
H -0.6373905 -1.2666571 1.4517288
