9

O -2.1041381 0.05416239 -0.62594163
C -0.8371879 0.0028647261 -0.29761428
N 1.1651925 0.4459262 0.6920943
N 1.2754014 -0.19937621 -0.4731825
N 0.20006868 -0.49129587 -1.1262124
C -0.12980615 0.6244961 0.8218588
H -0.56204003 1.1023289 1.6883494
H -1.1877207 -1.0202633 0.11186013
H 2.1802304 -0.51884305 -0.79121184
