9

O -1.9681456 0.4226562 0.07736746
C -0.6570114 0.13410406 0.030257571
N -0.111716986 -0.8969692 0.6540312
N 1.1741806 -0.78289497 0.32770243
N 1.4983022 0.22782366 -0.44778484
C 0.33916813 0.8455039 -0.66246015
H -2.3967388 -0.24063078 0.63305765
H 1.8600143 -1.4401901 0.6610174
H 0.26194754 1.7305971 -1.2731885
