11

N 0.27511013 -0.7194316 1.0097685
C -0.99899507 -0.165886 0.80257475
C -1.0358487 0.55020696 -0.32213417
C 0.32411888 0.4964268 -0.9643323
C 1.1435617 -0.3788555 -0.008416824
O 2.3012934 -0.72196096 -0.09049713
H 0.31918722 0.042438384 -1.9614615
H -1.7831924 -0.3559095 1.5240144
H 0.5423359 -1.3021088 1.7866161
H 0.8054546 1.474984 -1.0640061
H -1.8930256 1.0800961 -0.71212566
