11

N 1.2783377 -0.48477542 -1.1446751
C -0.30724403 1.161077 -0.5031593
C -0.46913517 -0.59986365 0.9057073
C -0.572964 0.8418429 0.7977185
C 0.0029998028 -0.13785145 -1.0398422
O -0.7381826 -1.0926244 -0.38970947
H -0.9233227 -1.172786 1.7103796
H 1.0990461 -0.6581039 0.31058145
H -0.6655157 1.5170037 1.6388075
H 1.331776 -1.4840182 -1.3436043
H -0.035795294 2.1100998 -0.9422036
