10

O -0.06431693 1.0708739 1.815854
C -0.41387242 -0.89399505 0.48614976
C 0.48143736 0.5957526 -0.639495
C -0.47001576 0.6155889 0.69251066
N 0.18056868 -0.85533434 -0.68034303
H 1.514483 0.7554341 -0.33935964
H -0.57893085 -1.7647185 1.1214094
H 0.63397115 -1.586769 -1.2090845
H 0.20280609 1.1522702 -1.5375557
H -1.4861301 0.91089725 0.28991404
