10

O -0.80928254 -1.0146937 1.3535936
C 0.9388589 0.3891144 -0.9898521
C -0.34719777 -0.15476444 0.40760753
C 0.97407407 0.5845714 0.3308431
N -0.25904912 -0.4679571 -1.0165591
N -1.3069612 0.49023262 -0.4451165
H 1.5805697 1.141394 1.0282924
H 1.47309 0.7277508 -1.867931
H -0.09195989 -1.6048205 1.6140958
H -2.1521423 -0.0908274 -0.41497365
