10

O 0.5276207 -0.0015397479 1.7406051
C 0.49117967 -0.0828473 0.41689512
C -0.4205512 -0.9832524 -0.33657137
C -0.9033133 0.077244714 -1.0282543
N -0.2190209 1.2310029 -0.655499
N 1.2451354 0.7260363 -0.33400863
H -1.718817 0.16362624 -1.7438167
H -0.19745451 -0.53175306 2.1011307
H 1.6496174 1.460659 0.24268869
H -0.45439622 -2.0591767 -0.40316954
