13

C 0.19928789 -1.5201648 -0.5972744
C -0.20703478 -0.05549486 -0.5841268
O -1.5738907 0.13349515 -0.23154916
C 0.7366041 0.7670796 0.3029867
O 1.9426839 0.6149487 0.2637816
N 0.09873946 1.653564 1.1089265
H 1.2481542 -1.6164103 -0.8841618
H -0.4267437 -2.0759697 -1.3025742
H 0.08213914 -1.9649826 0.3996913
H -0.11358556 0.36150956 -1.5918891
H -1.7554724 -0.43367884 0.5286856
H -0.8860063 1.8137532 0.9709248
H 0.6551248 2.3223507 1.6165788
