13

C -0.2917008 0.08587232 0.9101925
C -0.39702624 0.104053974 -0.55380106
O -0.72387666 1.1992216 1.3943642
C 0.8340009 0.68369186 -1.2384399
O -0.6808303 -1.1793251 -1.0949407
N 0.10312969 -0.90046924 1.6940378
H -1.038474 1.3567232 0.27781612
H 1.665834 -0.038453583 -1.2777959
H 0.4390687 -1.7486827 1.2672828
H 1.1775051 1.5877744 -0.7217745
H -0.034228925 -0.8544005 2.694856
H -1.6387091 -1.258334 -1.0849994
H 0.5853075 0.96232754 -2.2667983
