13

C 0.63172569 -1.56284254 -0.60086450
C -0.45998305 0.62525809 0.33540693
O -1.65155266 0.04445985 0.68388201
C 0.65634346 -0.09637041 -0.26714499
O 0.65544309 0.24865012 1.13981187
N -0.71365349 1.97838319 0.04990511
H 1.54638835 -2.05004368 -0.25201404
H 0.55730292 -1.69012039 -1.68597739
H -0.22258963 -2.07116363 -0.14365823
H 0.08505469 2.44406383 -0.35373128
H -1.45532741 -0.82712563 1.04826883
H -1.01487860 2.47159191 0.88133232
H 1.38572669 0.48525908 -0.83521680
