11

C 0.19457581 1.49741176 -0.15959838
C 0.00184099 0.02278875 0.01712033
C -0.13314426 -0.69050374 1.15736645
O -0.28669479 -1.99948412 0.89484013
C -0.08519678 -0.99714157 -0.97802721
N -0.25419343 -2.18281961 -0.46591015
H -0.58447235 1.92577851 -0.79923026
H -0.14230219 -0.41816081 2.20374191
H 0.15475026 2.01116452 0.80416181
H -0.02795870 -0.89043002 -2.05486494
H 1.16279558 1.72139648 -0.61959960
