9

O -0.47563063 -1.24348547 -1.31157117
C 0.19560777 -0.23669055 -0.63508880
C -0.09571203 0.57063362 1.34165548
O -0.55806562 1.56042577 0.42303482
C -0.47637832 1.11779834 -0.81884307
N 0.31989131 -0.48459863 0.81515411
H 1.22699155 -0.07773479 -1.00801480
H 0.02546488 -2.05930983 -1.19060829
H -0.16216864 0.85296159 2.38428168
