10

O 0.69763245 0.08392311 2.35996209
C -0.30550572 -0.14911651 -1.02142846
O 0.23567791 1.37594770 0.56887626
C 0.01486893 -0.93643831 0.21378952
C 0.36523197 0.16023582 1.21755004
C -0.15504888 1.13750163 -0.72764661
H -0.60509938 -0.55917980 -1.97638727
H -0.82758736 -1.52737746 0.59152675
H 0.86580001 -1.61689915 0.09848429
H -0.28596993 2.03140319 -1.32472647
