9

O -1.987887 -0.18506928 -0.034047585
C 0.010035012 1.0512285 -0.383978
C -0.87187046 0.0031338676 -0.6663961
C 0.6945441 -1.5467718 0.40115908
C 1.1286863 0.8984511 0.17248191
N 1.7815045 -1.1640254 0.7075443
H 2.0659187 1.1548477 0.6239844
H -2.0484955 0.39255401 0.74225265
H -0.77243567 -0.6043488 -1.5630008
