9

O -1.3213733 -0.66097975 0.88423777
C -0.5991345 0.29740098 0.15470338
C 0.8611189 0.19514285 0.33808824
C 2.0451143 0.076475285 0.5077305
C -0.92892516 0.23429377 -1.2958477
N -1.2055156 0.15426165 -2.413564
H -1.0039428 -1.5393488 0.63782305
H -0.9464957 1.266729 0.5279379
H 3.0991538 -0.023974985 0.6588909
