9

O 0.21331933 1.3816917 -0.9767934
C 1.737427 -0.49088523 -0.2024229
C -0.73562 -0.44321358 0.25170827
C 0.27414566 0.5947407 0.12628959
C -1.6129383 -1.256166 0.3526349
N 2.0272505 0.1415748 0.7642112
H 0.2837783 1.2413074 1.0008692
H -2.390184 -1.9834771 0.44297227
H 0.20282154 0.8144272 -1.759469
