12

O -1.2611264 -0.66293263 1.2317674
C 0.12507123 -0.48662657 1.1819752
C 0.58357656 0.70555425 0.3437093
O 0.8546068 0.402897 -1.0435638
C -0.14772253 0.026642367 -1.8236016
O -1.2879217 -0.18625976 -1.4879185
H -1.5811007 -0.63552827 0.31582844
H 0.65973276 -1.3844924 0.83150417
H 0.44923952 -0.2966898 2.2123158
H 1.5518507 1.0720732 0.6953893
H -0.15897489 1.5050399 0.39894485
H 0.21276839 -0.059677336 -2.856351
