11

N 1.357102 -0.32355937 -1.1891749
C -0.868952 -1.0201068 0.6900715
C -0.7240351 0.26320937 0.962956
C 0.9415902 1.0098745 -0.77900094
C 0.06077095 1.2399089 0.18624796
N -1.1039686 -2.1829832 0.40159267
O 0.63465697 -0.7882619 -2.0474079
H -1.243229 0.6166258 1.8455657
H -0.45261607 -2.886739 0.74851847
H -0.108449064 2.2793195 0.45984095
H 1.5071297 1.7927122 -1.2792095
