11

N 0.96671444 0.46009392 -2.1447825
C 0.5781159 0.24122806 -0.9607061
C -0.80062246 -0.11911069 -0.64389515
C -1.1499822 -0.33972216 0.6253281
C -0.12290103 -0.20793796 1.6439567
N 1.0978674 0.105387084 1.4183698
O 1.4626254 0.33612517 0.101543844
H 1.9576803 0.69948083 -2.1649776
H -1.4816608 -0.19066225 -1.482334
H -2.1596231 -0.6113094 0.91565114
H -0.348214 -0.3735727 2.6918457
