11

N 0.96041842 0.46270794 -2.14328333
C 0.58141677 0.24079043 -0.95870848
C -0.79626996 -0.12026880 -0.64191693
C -1.14956858 -0.34002573 0.62648065
C -0.12476201 -0.20650030 1.64504546
N 1.09654479 0.10462426 1.42163820
O 1.46719061 0.33401316 0.10507991
H 1.95111471 0.69873910 -2.17568951
H -1.47382794 -0.18968518 -1.48333579
H -2.16069510 -0.61046199 0.91227581
H -0.35156187 -0.37393299 2.69241394
