12

O -0.78966427 1.5955737 -0.41381127
C 0.5754308 -0.38149384 -0.23752755
C -0.2003033 0.56481266 -1.1610132
C -0.21713054 -0.8417956 1.0075079
N 1.2038013 0.17339987 0.853762
H -1.2112721 -0.40336075 0.9886308
H 0.50423676 0.9544188 -1.913696
H 0.30758798 -0.35537416 1.8987775
H -0.9933708 0.028684929 -1.6956811
H -0.13377582 1.7934322 0.27539188
H -0.11334617 -1.9126447 1.1586995
H 1.0678062 -1.2156532 -0.7610403
