10

O -0.84747918 1.43412262 0.97298928
C -0.67773770 0.05582968 -1.07645599
C 0.76133399 -0.40206364 0.77821400
C -0.00405364 0.71497964 0.11269524
N -0.13770453 -1.13079127 -1.01719925
N 0.73546993 -1.46708559 0.07505721
H 1.33721468 -0.34652838 1.69463195
H -0.30007486 -1.88602656 -1.66890607
H 0.76828114 1.37675073 -0.33209472
H -1.63525002 1.65081285 0.46106794
