10

O 0.6431736 -0.8103974 1.218408
C 0.79430175 0.04557712 -0.34351835
C -0.1384698 -1.078341 -0.21053833
C 0.04990811 1.2572286 -0.36868697
N -1.338317 -0.32592008 -0.08500541
N -1.2361633 0.9817815 -0.26087826
H 0.3955349 2.2779415 -0.46671355
H 1.8551866 -0.053838026 -0.5463908
H -2.2588449 -0.72533053 -0.17017242
H 1.2336905 -1.5687016 1.233496
