10

O -1.1382107 1.5570312 -0.04203798
C -0.85181934 -0.8841693 -0.33741847
C 1.0061258 0.44699714 0.3671595
C -0.27681604 0.51737195 -0.42380622
N 0.13161352 -1.498968 0.26099512
N 1.2761992 -0.7526019 0.70978564
H 0.16316468 -2.4843965 0.4832595
H -2.033902 1.208646 -0.11927695
H 1.6874862 1.2613189 0.5843522
H 0.03615827 0.6287706 -1.4830123
