10

N -0.43376212 -1.06464099 -1.38037282
C -0.17317614 -0.19848415 -0.36944203
N -0.20767585 -0.63072415 1.03646097
O 1.20692693 -0.41850237 1.46733529
C 0.34626667 0.67217991 1.31560957
C 0.21814193 1.06857097 -0.12859214
H -0.59928654 -0.68923873 -2.30161767
H -0.95916952 -1.88918067 -1.13712863
H 0.07419312 1.22782943 2.20834304
H 0.52754159 1.92219070 -0.71059563
