10

N -0.32065773 -1.0006402 -1.5098062
C -0.076370165 -0.44215313 -0.26860884
N -0.036083728 -1.1757408 0.8153928
O 0.31413093 -0.30631974 1.8402426
C 0.45297992 0.9219336 1.3358243
C 0.22350389 0.9305659 0.003713135
H -0.8860551 -0.42805368 -2.1188757
H -0.669903 -1.9482093 -1.4511936
H 0.7237221 1.6933273 2.0435674
H 0.27473295 1.75529 -0.69025594
