10

C 2.33233991 0.59947139 0.80362126
C -0.20254123 0.29322613 0.09196659
C 1.18764288 0.44266651 0.47367038
C -0.51054983 -0.96588522 -0.56848695
N -2.81082970 -1.35125978 -1.25755324
N -1.73955208 -1.18211662 -0.94149918
N -1.10466391 1.17604445 0.30197924
H -0.70687769 1.98952665 0.77188684
H 0.20574580 -1.74567996 -0.77524822
H 3.34928595 0.74400679 1.09966357
