10

C 0.3848729 2.053705 1.5018078
C 0.18130782 1.0922704 0.80550486
C -0.058532756 -0.04266919 -0.020659747
C -1.2041237 -0.7210429 -0.3748422
N -0.8695156 -1.7427056 -1.2007664
N 0.41462052 -1.7394874 -1.3806611
N 0.9144448 -0.72504526 -0.6784763
H 0.5556645 2.9099705 2.1202374
H -2.2264194 -0.5319461 -0.08488757
H 1.907681 -0.5530491 -0.68725646
