11

C -1.82784635 0.40172027 0.17217604
O -0.97415869 1.30364981 -0.20087977
C 0.68362771 -1.34410574 0.15140435
C 0.45966353 1.00629882 -0.08809029
O 0.77991010 -0.04299316 0.71923535
H -0.35829288 -1.66950804 0.14012176
H -2.80106746 0.91530635 -0.04227749
H 0.78676801 0.87060423 -1.12768211
H 1.27329041 -2.00033439 0.79472500
H 1.09810044 -1.35560525 -0.86677077
H 0.88000493 1.91496703 0.34803811
