10

O -0.25930684 2.20580511 -0.22975562
C 1.63421085 -1.11398936 -0.27460778
C 0.43510272 -0.52269564 0.36041646
N 0.02510622 -0.14097654 1.47710590
O 1.62840505 -1.46255989 -1.42826505
C -1.13380313 1.37417830 -0.22634374
C -0.91934695 -0.01829662 0.28098020
H -1.76845784 -0.69779533 0.25758261
H 2.50976507 -1.21046799 0.38937035
H -2.15167537 1.58679797 -0.60648340
