10

O -2.3840864 0.9553586 0.40712428
C -1.7675223 -0.060213815 0.6271767
C -0.35713485 -0.22448948 0.21228442
N 0.27524918 -1.340276 0.46416909
O 1.5309572 -1.1739048 -0.03042598
C 1.6387982 0.052729953 -0.57880217
C 0.47092646 0.71848774 -0.4631169
H -2.2126377 -0.9269625 1.1495351
H 2.6052158 0.2879667 -0.999958
H 0.20023419 1.7113036 -0.7879866
