11

O -0.2543117 -0.8080487 1.6015662
C -0.093244135 -0.8380805 0.30090153
N 1.2067505 -0.56227994 -0.2582963
C -0.74159753 0.669787 0.006589943
C 0.76428545 0.84044665 -0.37747613
C -1.3043821 -0.52237266 -0.4314812
H -2.272545 -0.8447106 -0.057312492
H -0.77999496 0.35679385 1.4255607
H 0.8385484 1.256086 -1.3877614
H 1.2959957 1.4742483 0.33103442
H 1.3404953 -1.0218692 -1.1533252
