11

O 1.2532237 -0.6594279 -2.1044016
C 0.62187064 -0.3479971 -1.115659
N 1.141217 0.036364842 0.09874308
C 0.13032767 0.3399115 1.0819732
C -1.140479 0.092497334 0.30571514
C -0.86062515 -0.294653 -0.9356912
H 2.1321733 0.08506458 0.25731647
H 0.19293903 1.3776706 1.4325432
H 0.19817661 -0.3132283 1.9616147
H -2.119948 0.22911033 0.75019467
H -1.5488763 -0.54531306 -1.7323484
