11

O 0.15839745 -1.031041 1.7585166
C 0.123724364 -0.25665715 0.6730404
N 0.62243414 0.92307264 0.53180575
C 0.4211938 1.5538224 -0.83090603
C -0.26775038 0.5510612 -1.4443185
C -0.52777714 -0.67227554 -0.594541
H -0.06773648 -1.6017443 -0.95628667
H 1.1178339 1.4218466 1.2599599
H 0.62508345 -0.5919302 2.4810822
H -1.5868115 -0.89773726 -0.41124323
H -0.61859167 0.6015828 -2.467109
