10

O 1.3180879 -0.9135952 0.49036622
C 0.40581375 0.13615702 0.36496535
C 0.0037696203 0.44542247 -1.0782043
O -1.3925813 0.17972985 -0.76175
C -1.0831435 -0.20650621 0.5058426
O -1.8025705 -0.6574289 1.3409008
H 1.3317896 -1.1980113 1.4117187
H 0.6872945 1.0235567 0.9497374
H 0.38985252 -0.27914843 -1.7977669
H 0.14168736 1.4698241 -1.42581
