11

N -0.06732042 0.9972804 -0.93577385
C 0.49169374 0.13772792 -0.13684049
C -2.5230622 1.4640843 -0.9472241
N 1.8464034 0.07531923 -0.16375335
C -0.15902139 -0.7899563 0.84584653
N -1.3821877 -1.0555699 1.025986
N -1.3918475 1.165709 -0.8522713
H -2.0001433 -0.5394849 0.39647344
H 2.305925 0.6000605 -0.8954926
H 0.5687348 -1.3117361 1.4784106
H 2.3108258 -0.74343413 0.18463908
