11

N 1.3059764 -0.91385585 1.021739
C 0.5313407 -0.30298352 0.10550278
C -0.7707826 0.22809733 0.67139477
N 0.096160166 0.39910778 -1.9906703
C -0.9818744 0.8899045 -1.9055017
N -1.7096275 0.83413947 0.102232486
N 0.9832298 -0.23860079 -1.1085076
H -0.833962 0.022413423 1.7567331
H -1.8867477 1.248245 -1.3943349
H 1.0470318 -0.92184585 1.9933399
H 2.2192554 -1.2446216 0.7480728
