11

N -0.80129123 -1.54246384 -1.02764565
C 0.17762624 -1.09606761 -0.36312506
C 0.38233651 0.25003476 0.26600457
N 1.61971882 0.45131635 0.78391204
C -2.86875299 1.04803648 -0.28016990
N -0.46898951 1.22348717 0.39736754
N -1.72963953 1.01529776 0.00096932
H 1.03445222 -1.76427245 -0.21693322
H -1.55776437 -0.86296465 -1.13025245
H 2.38767943 -0.10925956 0.46233208
H 1.82462439 1.38685575 1.10754080
