10

O -1.91441447 0.49344745 0.36416987
C -0.65290830 0.02489151 0.23512016
N 0.45149205 0.52732123 1.13479184
C 0.32221596 -0.18271963 -0.87144755
C 1.27829707 0.37490451 0.16205873
N -0.41850187 -1.29134201 -0.22279661
H -1.86238927 1.43844426 0.56124907
H 0.14900904 -1.85943172 0.40155265
H 2.35070607 0.56078729 0.18550421
H 0.29649370 -0.08630299 -1.95020239
