10

O -1.9643484 0.99160665 -0.18778732
C -0.80575025 0.35170156 0.04179288
N -0.4767659 -0.29737303 1.1176488
C 0.79948896 -0.7653944 0.8572922
C 1.2171841 -0.38521954 -0.38154894
N 0.15692058 0.34787402 -0.90976983
H -2.4896047 0.8648278 0.6151769
H 1.3366196 -1.3507507 1.5913366
H 2.1295538 -0.54861283 -0.9338063
H 0.09670219 0.79134035 -1.810335
