10

C -1.0834551 0.24616519 -0.25126672
C -0.3179884 -0.59501666 -1.0498806
N 0.95077133 -0.8916784 -0.766227
C 1.4431424 -0.32766256 0.33628792
N 0.81139225 0.49029428 1.1744754
C -0.4552508 0.7698732 0.8699451
H -2.1141238 0.4809339 -0.4922135
H -0.73230517 -1.0488287 -1.9482045
H 2.4780214 -0.56270236 0.57755244
H -0.9802039 1.4386219 1.5495316
