10

C 0.34856358 -0.3974936 -1.2413996
C -0.8960557 -0.92764497 -0.77602595
N -1.1282476 -0.44215807 0.48655793
C 1.1301816 0.44125414 -0.48296395
N 0.79205227 0.8552878 0.7664294
C -0.3396684 0.39359406 1.2045419
H 2.081355 0.8246921 -0.8495883
H -1.9866065 -0.7455752 0.93108296
H 0.68973285 -0.67990327 -2.2333665
H -0.69130695 0.677947 2.1947322
