11

O 0.06825421 1.9411521 1.6450766
C 0.93762475 -0.8715717 -0.14165871
N -0.85665596 0.59480214 -0.04205058
C 0.2043108 0.8813555 0.85215116
O -1.0598425 -1.1277338 -1.5781387
C -0.42099836 -0.45605373 -0.63593936
N 1.2368171 0.123177424 0.8662698
H 1.6735208 -0.8624845 -0.95333296
H 0.91420186 -1.8848318 0.2777288
H -0.78895885 2.3448172 1.4446522
H -1.9082739 -0.68262863 -1.734758
