11

N -0.58755887 -1.30257966 1.09620211
C 0.67949944 1.06798614 -0.68219700
O 1.19951801 -0.20076375 -1.16620982
C -0.67267448 0.44847676 -0.61825744
C -0.94324024 -0.05460719 0.72262706
O -1.55640553 0.75572000 1.40929336
H 1.19294768 1.29062516 0.25674228
H 0.87901378 -0.31403379 -2.07396331
H 0.82054225 1.87355444 -1.40843600
H -0.91040653 -1.64294840 1.99210946
H -0.10123518 -1.92142987 0.47208902
