11

N -1.5508547 0.41928944 0.5327214
C 1.3907675 0.0785018 -0.5794633
O -1.6049161 -1.1863064 -1.0941942
C 0.42949945 -0.8989427 -0.028475368
C -1.0028489 -0.5508088 -0.2438289
O 1.2817585 0.43689233 0.813665
H 2.3848302 -0.25820905 -0.8788161
H -0.977286 0.9990538 1.1251178
H 1.0118887 0.9037938 -1.1822703
H -2.516992 0.66358346 0.3744645
H 1.1541535 -0.6068478 1.1610794
