10

C 0.8206002 -0.09525905 0.7829109
C 0.44744015 1.135967 0.25928327
N -0.51263535 1.2596285 -0.65759313
C -1.0952395 0.12596789 -1.0434549
N -0.8230259 -1.104222 -0.6163664
C 0.13994698 -1.203299 0.30018526
H 1.6026455 -0.18520536 1.5283469
H 0.93114835 2.055758 0.5818274
H -1.8808793 0.2167565 -1.7906953
H 0.36999866 -2.2060926 0.6555562
