12

N 2.1657047 0.39047036 -0.6974661
C 0.8860578 0.16389737 -0.28221378
N 0.7041499 -0.84322053 0.5855659
C -0.54064405 -1.0237067 1.006376
C -1.6095376 -0.23870622 0.58624274
C -1.291398 0.7648878 -0.32147682
N -0.05926039 0.98078793 -0.7679572
H 2.2865474 0.9683416 -1.5134885
H 2.833342 -0.34512323 -0.53078294
H -0.69168484 -1.8408457 1.710664
H -2.6203332 -0.40123805 0.93989575
H -2.0629437 1.4244554 -0.71535915
