12

N 0.33313996 -0.6370769 0.81279695
C 1.0931933 -0.7898712 -0.40875047
N -0.5278923 1.0385195 -0.46358156
C 0.08915933 -1.3692766 -1.1104805
C 0.024254514 0.10631365 -1.3197943
C -0.37627384 0.50455385 0.7334734
N -0.9802097 1.0296212 1.8318317
H -0.06605932 -2.2140424 -1.7681721
H -1.2997224 1.9782083 1.7538606
H 0.15998845 0.42574903 -2.3506587
H -0.63524437 0.7260692 2.729029
H 2.1856666 -0.7987677 -0.4395539
