12

N -0.6068104 -0.74042267 -1.2562152
C 0.10092301 0.3018444 -1.5164856
N 0.72095394 -1.1681715 0.7729909
C -0.44366693 -0.58727926 0.16697143
C 0.6830025 0.8405543 -0.2723675
C 1.443869 -0.12950984 0.53369087
N -1.5634612 -0.54080325 0.92148095
H 2.4699826 -0.023871858 0.88855326
H -1.4461154 -0.4026047 1.9120538
H 0.22897615 0.67570734 -2.533835
H -2.3811464 -0.13147871 0.49886873
H 0.79349303 1.9060359 -0.11570675
