12

N -1.6868126 -0.5174586 1.375681
C -0.7681983 -0.3300442 0.4074784
N -0.76870006 -0.8103255 -0.7780713
C 0.44074768 -0.19090635 -1.3035268
C 0.66100806 1.1456527 -0.6397132
C 1.4337331 0.042034686 -0.19280985
N 0.35278383 0.5559224 0.6993925
H -2.3193932 -1.2909089 1.2564203
H -1.4276296 -0.27099472 2.3179176
H 2.4742134 -0.11611248 0.056682676
H 0.73815405 -0.39740318 -2.3245928
H 0.8700936 2.1805444 -0.8748585
