11

N -0.69649326 2.00288272 1.83808201
C 1.02666015 0.50142896 -0.88688125
C -0.57227578 -1.16804594 0.30934586
C -0.11844957 0.23793929 -0.00602666
C -0.43798992 1.23952769 1.01103898
O -0.30316232 0.68344290 -1.33891847
H -0.11098977 -1.52404356 1.23519131
H 1.60621034 1.41367071 -0.76934653
H 1.55373728 -0.35174068 -1.31058508
H -1.65820215 -1.20126457 0.42767205
H -0.28904493 -1.83379785 -0.50957282
