11

C 0.057000086 -0.6348812 -1.3402537
C 0.70603013 0.06951829 1.2186478
C -0.80892336 1.1286832 0.6050636
N -0.07159822 1.2638661 1.6503667
C -0.13277787 -0.11281149 0.043928575
O -0.16651496 -1.0408995 1.1563119
H 0.3491625 0.17049633 -2.0197217
H -0.86238223 -1.0930667 -1.7167523
H 1.7581949 -0.0804588 1.4244382
H 0.8409454 -1.3981218 -1.3430023
H -1.6691365 1.7276753 0.32097325
