11

C -0.8795717 -0.8001651 -1.1906178
C -0.1279429 -0.061286632 -0.14306515
C -0.26310745 1.1343865 0.47128302
N 0.76019156 1.3027929 1.398669
C 1.4456942 0.22121987 1.2978076
O 0.984022 -0.6627405 0.38960716
H -1.2551695 -1.7556417 -0.8106231
H -1.7315271 -0.19905265 -1.5162773
H -0.24914275 -1.007378 -2.0609455
H -1.0182438 1.8913646 0.31978586
H 2.3347976 -0.0634995 1.8443763
