12

N 0.21812652 -0.065892935 -1.5828837
C -0.60038793 -0.8039715 -0.7938964
N 0.44683784 0.61778027 0.61973447
C -0.42778137 -0.39378387 0.53981006
O 1.9214215 1.5032706 -1.0131804
C 0.8063211 0.8272056 -0.6619307
N -1.0942951 -0.8556111 1.6563499
H 2.233508 1.9377644 -0.20649917
H -0.6104591 -0.65057117 2.5180407
H -1.317813 -1.4971509 -1.2120767
H -0.1537402 1.1890502 -1.4618078
H -1.4217381 -1.8080899 1.5983402
