12

N -0.5419829 0.118000306 -0.88480735
C 0.35545978 -1.0141114 -0.7225398
N -0.7525019 2.1489894 0.2974297
C 1.0691309 -0.68619084 0.58780843
O -0.2434107 -2.272057 -0.76111454
C -0.24616273 0.91237515 0.077052705
N 0.74190396 0.45848155 1.0309936
H -1.5839944 2.393302 -0.21782164
H -1.0224944 -2.2284145 -0.18799618
H 1.0959682 -1.0159888 -1.5352474
H -0.665964 2.5133178 1.2328035
H 1.7940482 -1.3277038 1.0834391
