12

N -2.1302402 0.5626966 -0.07947936
C -0.78543067 0.19803469 -0.03991337
N 0.15250476 0.8182181 0.6392042
C 1.308057 0.15931703 0.30920643
O 2.4930348 0.5388466 0.83287907
C 1.0851191 -0.8684523 -0.5548064
N -0.29882807 -0.8331055 -0.76730317
H -2.2937768 1.3119009 0.5817856
H -2.756341 -0.20796998 0.11171987
H 2.3045557 1.2788689 1.4243102
H 1.732749 -1.6079093 -0.9958755
H -0.8114038 -1.3504455 -1.4617275
