11

N -0.8766214 0.9866571 -1.3425612
C -0.280727 0.24062552 -0.31172562
C 1.015809 0.30289993 0.15495048
N 1.0789664 -0.558269 1.2080982
N -0.0753434 -1.1759281 1.453385
C -0.9099961 -0.6986714 0.5405196
H -1.5596634 0.4522311 -1.8612976
H -0.19689472 1.3678701 -1.9858619
H 1.8712635 0.87801665 -0.16719729
H 1.872227 -0.7603744 1.7915373
H -1.93902 -1.0350573 0.5201532
