11

N -1.7607211 0.8841071 0.30492523
C -0.6467752 0.94169545 -0.32330632
C 0.37018165 -0.08038169 -0.14113648
N 1.6123724 -0.057352096 -0.8134987
N -1.0477593 -1.3582587 1.4981717
C -0.14242588 -0.96901447 0.75290227
H -2.372158 1.6604431 0.07941185
H 0.16594449 -1.9838693 1.2991942
H 2.4097407 0.0852212 -0.20813257
H -0.35960242 1.7284586 -1.0299594
H 1.7712026 -0.85104907 -1.4185716
