10

N 1.24601484 0.57000322 0.95505880
C -0.84696105 -1.05485955 -1.19871009
C -0.23516889 0.43451433 0.67296912
C 0.73065679 1.21176657 -0.12089401
C -0.81566568 -0.80959467 0.09218387
O 1.01681467 1.81302455 -1.11370551
O -0.88678028 -1.30365260 -2.33715396
H -1.27866086 -1.54568001 0.73899928
H -0.82639782 0.88427096 1.46698479
H 1.89614822 -0.19979260 0.84426763
