11

N -1.6966592 -0.6983658 -0.10639181
C -1.6912777 0.44478005 0.69512653
C 0.42132986 0.045603994 -0.028474726
C -0.3498366 0.92201245 0.70741075
N 1.7729698 0.024001667 -0.301963
N -0.40674624 -0.8821369 -0.5591491
H -2.3840516 0.24471755 -0.41637504
H 2.1949124 -0.8919217 -0.34681082
H 2.3037188 0.6613828 0.27368504
H -0.17957605 -1.6591253 -1.1568334
H 0.015216246 1.7890512 1.2397757
