11

N 0.9506957 1.1441284 1.1231215
C 0.11846655 0.32395384 0.3575914
C -1.205449 0.13048181 0.31011814
O -1.5114269 -0.731444 -0.73812264
C -0.34770614 -1.0933641 -1.3586854
O -0.27364773 -1.8123461 -2.3181279
N 0.66282207 -0.46821344 -0.6576008
H 1.6151209 0.61995476 1.6829798
H 0.42320937 1.7609333 1.7252564
H -2.0280757 0.5041545 0.8982991
H 1.5959908 -0.37823886 -1.0248296
