12

N 0.85630363 -1.7416605 0.5615029
C 0.26705673 -0.54593724 0.16890936
C 0.9298479 0.39500085 -0.62445235
N 0.3489233 1.5086256 -1.0579733
C -0.91825604 1.6985165 -0.69721645
N -1.6502694 0.88127 0.05686667
C -1.0553402 -0.22725953 0.483733
H 1.8645014 -1.7378575 0.60536593
H 0.4464877 -2.1754856 1.375078
H 1.9667315 0.23665144 -0.9211855
H -1.4007318 2.605054 -1.0514264
H -1.655255 -0.896918 1.1007986
