10

N 0.90348357 1.9272833 -1.8469102
C 0.3537631 1.0793457 -1.2845764
C -0.3263998 0.021812078 -0.5734553
C -0.48281577 0.120914586 0.9279911
C 0.46504763 -0.8773014 0.35014227
H -1.1416352 -0.43224463 -1.12847
H -1.423158 -0.22792837 1.3431267
H -0.06902342 0.99859166 1.4125526
H 0.19194429 -1.9273032 0.3604832
H 1.5287936 -0.68316984 0.4391162
