10

C -0.22265592 0.9747499 -0.36989534
C -0.6277018 -0.04018891 -1.2356385
N -0.4559958 -1.3341324 -0.9877463
N 0.13000265 -1.7118772 0.13914376
C 0.53921837 -0.78920066 1.0042119
C 0.38885552 0.58242387 0.80418897
H -0.38696516 2.0186212 -0.61569446
H -1.1156846 0.18470545 -2.181025
H 1.010249 -1.1816027 1.9013885
H 0.7406778 1.2965014 1.5410668
