9

C 1.2714366 -0.5728959 1.7497458
C -0.9486745 0.7987107 -1.1518005
C 0.5243505 -0.11442619 0.76982844
C -0.1967472 0.33144733 -0.1750851
O -1.4301912 0.08712548 -2.199923
H 1.6048925 0.07808545 2.5504909
H 1.5722051 -1.6158639 1.7795792
H -1.2615701 1.8352563 -1.2017117
H -1.1357021 -0.8274393 -2.1211238
