9

C 1.5306733 0.09581149 -0.18060379
C -1.4202919 -0.08674002 0.0988923
C -0.40636525 -0.7691596 -0.5160085
C 0.82459676 -1.0231119 -0.74513453
O 1.0297354 0.8503603 0.7018525
H -0.15015179 0.6260421 0.600511
H -1.7896705 -0.5064848 1.0356876
H 2.5402384 0.355756 -0.5072467
H -2.1587646 0.4575263 -0.48795003
