12

C -0.14192192 0.57459536 1.61717703
C -0.23615148 0.27282502 -0.80646973
N 0.27305582 0.14632551 2.73599271
N 0.16641333 -0.12404167 0.45894248
C 0.15953041 -0.67721812 -1.91572649
O -0.87574387 1.28745667 -0.98727340
H 0.18671707 -0.12845173 -2.85655596
H 1.13097831 -1.14900539 -1.73411654
H -0.04065317 0.76149609 3.48199920
H -0.74303798 1.46602797 1.42586345
H -0.59700962 -1.46658519 -1.99734363
H 0.71782333 -0.96342445 0.57751077
