13

C 0.20161834 -1.5203937 -0.59835833
C -0.20633031 -0.055369493 -0.5843683
O -1.5730293 0.13035862 -0.23304965
C 0.73616076 0.76967484 0.30358046
O 1.9418347 0.6207075 0.26034662
N 0.09642158 1.6547369 1.1104037
H 1.2509598 -1.6167887 -0.88348913
H -0.4240593 -2.0775607 -1.302429
H 0.08341751 -1.9641056 0.39929482
H -0.10995391 0.3570482 -1.5946081
H -1.7570752 -0.43702087 0.52644247
H -0.8893995 1.813542 0.973768
H 0.6494349 2.325171 1.6224662
