13

C 0.43182467 -1.40256381 -1.80442856
C -0.19319658 0.00858125 -0.01909550
O -0.36013759 -1.16800766 -0.64427366
C -0.44445845 0.15081512 1.28469521
O 0.22211778 1.01921256 -0.80200744
N -0.27750538 1.46542355 1.83218150
H 1.49904550 -1.32719032 -1.56794405
H 0.19302517 -2.41933070 -2.11340383
H -0.76475401 -0.71031265 1.86347355
H 0.18611324 -0.69886625 -2.60502878
H -1.15972010 1.84163137 2.16840822
H 0.28975863 1.77898810 -0.20230368
H 0.37788719 1.46161943 2.60972677
