13

C 0.0018294986 -0.15073346 0.17025954
C -1.0373158 -1.1111625 -0.05748422
O -0.2603242 0.531987 1.239464
C 2.086919 0.86976826 0.085469894
O 1.0945842 0.012673832 -0.52031595
N -2.2960024 -0.645877 -0.58274794
H 1.79442 1.913532 -0.041067217
H -2.5265553 0.26576617 -0.20828803
H 3.012322 0.6589551 -0.4468388
H -0.7292938 -2.0450654 -0.5276135
H 2.1868958 0.6379639 1.1478115
H -2.2940876 -0.57370335 -1.5935377
H -1.0333911 -0.3641049 1.3348881
