13

C -0.57122886 -0.1400312 1.2348357
C 0.790492 -0.9899115 -1.9505942
O 0.13590686 1.1658075 -0.59478456
C -0.18993498 -0.013775555 -0.0387057
O -0.12478227 -1.0720804 -0.86261374
N -0.6502627 1.0666755 2.0051749
H 0.5125491 -0.19387138 -2.6474392
H -1.6044447 1.2571589 2.2986648
H 0.7337075 -1.9580669 -2.4463325
H -0.8081656 -1.1249807 1.6257962
H 0.037354074 1.8090553 0.12493648
H -0.07125024 1.011394 2.8393326
H 1.8100599 -0.81737345 -1.5882707
