12

C 0.5549941 -0.64832485 -1.8496649
C -0.08027739 -0.7408242 -0.4788551
O -0.6029743 -1.7442465 -0.0445495
N 0.009197061 0.42078778 0.2681968
C -0.47429582 0.5393567 1.564713
N -0.3431416 1.6418933 2.1759572
H 0.13278165 -1.4264953 -2.4842224
H 0.3981343 0.33201814 -2.3115733
H 1.634948 -0.81789666 -1.7604029
H 0.4513582 1.2434804 -0.11961497
H -0.93697643 -0.37710473 1.9328943
H -0.7437477 1.5773556 3.1071217
