11

N -0.55019844 -1.3517401 -0.023274086
C -0.3329225 -0.1915637 -0.57863086
C 0.30912754 0.86281276 0.18861979
N 0.7168878 0.7229897 1.3879739
C 0.9378896 0.6291411 2.5957847
N -0.74165004 0.051040567 -1.9044247
N -0.7455517 -2.374264 0.44355252
H 1.9614018 0.32366252 2.846507
H -0.25032523 -0.49262297 -2.6006508
H 0.43750894 1.8151746 -0.31234702
H -1.7421678 0.0053697373 -2.0431106
