10

O -0.6147221 1.7203825 0.34217682
C -0.18683116 -1.3992548 0.92982006
C 0.53185254 -0.025289737 -0.9389783
O 0.42108908 -1.2359098 -0.22317052
C 0.093655 1.2047175 -0.6748637
O -0.75205666 -0.5705565 1.611417
H -0.8122973 1.0191389 0.99353147
H 1.0870805 -0.21902716 -1.8467028
H 0.34608597 1.9619313 -1.4153812
H -0.11385587 -2.4561324 1.2221512
