10

O -1.6465864 -0.35025743 0.520396
C 1.1140434 -0.24813704 0.60252196
C -1.136118 0.081373945 -0.5569608
O 1.123163 1.065659 0.33236206
C 0.15332288 0.56120247 -0.7530226
O 0.47256666 -0.7249242 1.6057451
H -1.7601786 0.03391444 -1.4597846
H 0.42247558 0.9479978 -1.7337826
H 1.856233 -0.84981626 0.079019874
H -0.5989214 -0.5170127 1.3635055
