12

N 0.8571694 -1.7363604 0.56400335
C 0.26729026 -0.544887 0.16959913
C 0.92947656 0.3939387 -0.6230208
N 0.34723538 1.5083039 -1.0580109
C -0.91917837 1.6973923 -0.6987827
N -1.6507082 0.8813227 0.055938445
C -1.0557387 -0.22714755 0.485515
H 1.8655069 -1.7381446 0.60374343
H 0.4488603 -2.177715 1.3745254
H 1.9660082 0.23712622 -0.9204661
H -1.4020565 2.6024885 -1.0568562
H -1.6538647 -0.8963175 1.1038123
