12

N 1.0075455 0.6182388 0.032469153
C -1.078176 0.31367487 -0.38280162
C 0.20860323 1.7322227 0.4872992
N -1.0365789 1.6131316 0.27019086
C 0.047093734 -0.56015736 0.12986027
N 0.182209 -1.856925 0.6089582
C 0.22092707 0.0829682 -1.1173006
H 0.6883749 2.5756478 0.97223127
H 0.24567388 -1.8937968 1.6200602
H 0.58107907 -0.16848359 -2.1053581
H 0.9582208 -2.3511786 0.18973327
H -2.0249722 -0.1053426 -0.7053421
