12

N 0.97917686 -1.24670407 1.15721321
C 0.29531131 -0.39576540 0.29836015
C 0.29144292 -0.14949751 -1.09396736
N 0.56992794 1.01583048 -0.20418626
C -0.71782737 1.66056153 -0.09397109
N -1.71177641 0.87977958 -0.21331145
C -1.03769533 -0.39289621 -0.41977772
H 1.94299881 -1.38655045 0.88569761
H 0.92515206 -0.94908044 2.12479580
H 0.84896172 -0.46480321 -1.96514484
H -0.77075382 2.72993775 0.08021028
H -1.61491816 -1.30081179 -0.55591796
