11

N 1.68542464 0.23132189 1.98920512
C -0.47992952 0.91833157 -0.68998425
C 0.53399485 -0.15752604 -0.34117953
C 1.17629861 0.06104590 0.96385579
C -0.95564965 -1.85761777 0.55449881
O -0.11556656 -1.47220409 -0.36321725
H 0.01297590 1.89396255 -0.74937731
H -0.92533891 0.68519527 -1.66036986
H -1.26842763 0.97176386 0.06703156
H 1.31459340 -0.23314555 -1.10202701
H -0.97837500 -1.04112756 1.33156347
