11

N 0.7380662 1.7360537 2.3399534
C 0.24974695 1.3222497 1.3798523
C -0.34583396 0.7826176 0.14398134
C 0.5799758 -0.11884787 -0.7000626
C -0.40230232 -1.2306443 -0.31153256
O -1.2416403 -0.29924703 0.4010246
H -0.8338752 1.6031709 -0.39324775
H 0.5944947 0.14136063 -1.7587289
H 1.5991241 -0.2265529 -0.32545125
H -0.9385287 -1.7105422 -1.1336529
H 0.0007728477 -1.9996182 0.35786387
