11

O 1.841355 -0.39386898 -0.33276147
C -0.41683924 -1.038943 -0.12779148
C -0.34378242 0.9228298 -0.3328184
N -1.3492227 -0.17634653 -0.48295787
C 0.7507834 -0.18233153 0.2978178
O 0.8642193 -0.05638237 1.6923304
H -0.648138 1.6825901 0.39001435
H -2.017606 -0.32460225 -1.2353857
H 1.7343048 0.3700351 1.7839899
H -0.4377652 -2.1033385 -0.37122518
H 0.02269095 1.3003584 -1.2812126
