10

N -0.31553704 -1.6532357 -0.13877594
C 0.819491 -0.82328415 -0.3773734
C -1.154078 -0.727914 0.15364993
N 0.3646034 0.11866457 -1.3437579
C 0.91033465 0.304643 0.94322777
C -0.37220514 0.5178743 -0.12569112
N 1.4736446 0.7469732 1.8659985
H -2.1475182 -0.8598248 0.56916016
H -0.6697498 1.560558 -0.02956413
H 1.0910147 0.8155458 -1.5168741
