10

N 0.6031648 -0.17386267 3.3037708
C 0.3539063 -0.027859872 2.1848829
C 0.0452119 0.13641067 0.79636264
N -0.6537891 1.1222421 0.28450468
C -0.7034128 0.86377853 -1.0530251
C -0.02513697 -0.2926302 -1.3499886
N 0.4544602 -0.75305 -0.15492302
H -1.2267274 1.5230588 -1.7314596
H 0.15212916 -0.8115519 -2.2770047
H 1.0001937 -1.5865355 -0.0031202578
