11

O -0.4025241 -0.15004726 1.9369043
C 1.9601277 0.22305624 -1.185135
C -0.25305197 -0.4880353 -0.4565457
C -0.8142916 0.33905894 0.68300223
O 1.1938123 -0.42804223 -0.36326486
H -0.53163695 1.3937801 0.539669
H -0.56014144 -0.10502893 -1.4399981
H 0.5627005 -0.14145233 1.9495
H -1.9068544 0.27385977 0.6636326
H -0.5167796 -1.5422347 -0.3438232
H 1.2686393 0.6250857 -1.9839413
