11

O -0.12464040 -0.23131206 1.96649374
C -0.79563488 0.10278072 0.77519354
C 1.67086579 0.75514232 -1.39081536
C -0.15308040 -0.54620877 -0.43459184
O 1.21797428 -0.07558162 -0.50119407
H 0.80902743 0.93251609 -2.10049739
H -0.84240759 1.19221626 0.62086492
H -1.81959932 -0.27095926 0.87586548
H 0.79341323 0.05183205 1.87216449
H -0.66407096 -0.28024067 -1.37071473
H -0.09184690 -1.63018505 -0.31276865
