11

N 1.0391958 0.13162576 1.7685741
C 0.371951 0.060005423 0.53971314
C -0.9716772 0.1266935 0.27214727
N -1.0541651 0.06429154 -1.1112857
C 0.20766127 -0.023529582 -1.5859003
N 1.095675 -0.034276735 -0.6185022
H 2.0092683 -0.12639444 1.6470326
H 0.6174063 -0.4327045 2.4929237
H -1.8463225 0.22660933 0.8954061
H -1.8978248 0.08576967 -1.6575798
H 0.42883205 -0.07808987 -2.6425285
