11

N -0.6297056 -0.7124811 -1.9405403
C -0.3221983 -0.27670604 -0.7998921
C 0.7087067 -0.8757496 0.13346641
O 0.43888187 -0.24519524 1.3710002
C -0.13133995 0.9895376 1.0494549
O -0.8443201 0.8130431 -0.17372498
H -1.3328326 -0.1253078 -2.3813524
H 0.58867264 -1.9552996 0.23963457
H 1.7215636 -0.65196836 -0.22861771
H -0.83169687 1.277148 1.8333882
H 0.6342683 1.762979 0.89718306
