11

N 1.1420479 -0.843841 1.2208898
C 0.23030864 1.1145111 0.94922256
C 0.2964666 -0.20627296 0.4304809
O 0.56445307 0.33911884 -1.1078101
C -0.64655125 -0.29165542 -1.3701262
O -0.88341266 -0.78644127 -0.042892065
H 1.1644205 1.6285594 1.1440232
H -0.7172649 1.5895871 1.203681
H -1.4416703 0.3931394 -1.6903048
H -0.552357 -1.1255115 -2.0770674
H 0.84355944 -1.8111936 1.3399026
