9

N 0.03548124 0.23743783 0.5229676
C -0.24528873 -0.6746777 1.5149791
N 0.34235495 1.0543437 -1.3776977
C 0.018657848 -0.050897527 -0.7786869
O -0.22507775 -0.44173145 2.6986463
H -0.5015389 -1.6812236 1.1165813
H 0.40918383 1.1526046 -2.3795977
H -0.21818495 -1.0176061 -1.2202075
H 0.38441247 1.4217502 -0.096984036
