12

O 1.07899690 1.07546281 0.54515029
N 0.25252059 1.34687949 -1.68173281
C 0.61820809 -0.12477222 1.22055630
C 0.00909653 -0.64810634 -0.08943829
N -1.37470421 -1.04425099 -0.05766167
C 0.43528414 0.71426942 -0.61722842
H 0.67803862 2.27263433 -1.65129511
H -0.12147170 0.11917872 1.98860728
H 1.45095213 -0.68561500 1.64833773
H -1.67448634 -1.31840512 -0.98458028
H -1.95764464 -0.25821460 0.21466536
H 0.60521005 -1.44906061 -0.53537998
