12

O 0.8749496 1.9647074 -1.2865764
N 1.0138608 1.4074206 -0.006437222
C 0.31210616 0.36590993 0.10515113
C 0.13487403 -0.6078598 1.2438209
N -0.5603079 -1.5121422 0.2943328
C -0.58901703 -0.48081958 -0.7701845
H 1.4677261 2.7236266 -1.2373813
H -0.49136856 -0.21557939 2.054865
H 1.0514684 -1.0276538 1.668724
H -1.4824558 -1.790606 0.6095413
H -1.5681189 -0.020368425 -0.9522851
H -0.16371673 -0.80663544 -1.7235702
