10

C 0.2689606 -1.1967047 0.06751408
C -0.4248079 -0.11747597 -0.99736553
N 0.23102224 -0.68277526 1.2983136
C -0.11656017 1.0729036 -0.108336836
N 0.77158207 -0.6388505 -1.2212178
C 0.14127307 0.65441537 1.1611935
H -0.026987404 2.0607862 -0.53703403
H 0.18021129 -2.2767203 -0.027867569
H 0.27312216 1.3098874 2.0146222
H -1.297816 -0.18546602 -1.6498215
