10

C -0.8376745 0.43187252 0.07594754
C 0.51082015 0.93938166 -0.30465263
N 0.2709751 0.5530085 1.0767837
C -0.8811661 -1.0194892 -0.2901984
N 0.2959276 -1.4982573 -0.22016144
C 1.0744114 -0.33189204 0.1900007
H -1.6957682 1.0786362 0.21340828
H 2.12295 -0.4608267 0.43614835
H -1.757651 -1.5947967 -0.5683763
H 0.89717567 1.902363 -0.60889965
