10

O -0.74545914 0.6151916 -0.12941377
C 0.69164693 -0.17234394 2.1048644
O -1.1673759 0.590057 -2.3669293
C 0.9748014 -0.7119037 0.8103531
C 0.24710155 -0.30073208 -0.25692454
C -1.3957276 0.9966683 -1.2691767
H 0.3927135 -0.66385686 -1.2721915
H 1.7459325 -1.4477774 0.5689784
H -2.1575193 1.7361473 -0.9944238
H 1.413886 -0.6414501 2.8048635
