11

N -0.7183479 -1.4115059 -2.1874785
C -0.6743884 -0.8084312 0.35744065
C -0.030832311 0.59593123 0.5557301
C 1.1679233 0.87143964 -0.1970938
C -0.72994494 -1.1760902 -1.0551444
O 0.12510417 0.95582354 1.7914264
H -1.6705346 -0.79896057 0.80446005
H 1.6463915 1.8220704 0.024598727
H 1.6489704 0.1981781 -0.90769035
H -0.697453 1.2860808 -0.094690435
H -0.066888355 -1.5345356 0.9084416
