11

N -0.75294321 -1.46379413 -2.12333408
C 1.30930104 -0.18523618 0.51023955
C -0.07005652 0.33565753 0.82564487
C -1.07681060 0.41536934 -0.33007027
C -0.90910322 -0.62865454 -1.34331081
O -0.40464124 0.72285641 1.91700869
H -2.08834607 0.38352822 0.08408822
H 1.96678776 -0.03319260 1.36775225
H -0.94610288 1.39240281 -0.80966741
H 1.71973865 0.31457934 -0.37299415
H 1.25217648 -1.25351582 0.27464274
