11

C 1.2295309 0.26968363 1.0125016
N 0.0685727 0.1198005 0.1474217
C -1.6056726 -0.64443606 -1.0812835
C -0.45467496 -1.0077301 -0.3796013
N -1.5987692 0.76695156 -0.93345964
N -0.565762 1.2128195 -0.23037674
H -0.015405704 -1.9739715 -0.1727238
H 1.0182018 1.0576422 1.7348777
H -1.584374 0.3328109 -2.0278335
H 2.0964007 0.5419837 0.40716717
H 1.4119521 -0.67555434 1.5233101
