9

O -0.9316502 -1.1304361 -1.9703562
C -0.40726107 -0.6194383 -1.0185899
N -0.89677733 0.32160997 -0.14191747
C 0.0638738 0.6270455 0.81958437
C 1.129642 -0.12405319 0.5281583
O 0.86917454 -0.8899366 -0.58553815
H -1.8223133 0.70434934 -0.22421989
H -0.10487911 1.3422127 1.6084558
H 2.1001906 -0.23135325 0.98442316
