9

O 0.61304134 -0.99597013 1.2537003
C -0.7412923 0.35543528 -0.1904745
N 0.39041737 0.54304534 -1.0312606
C 1.545099 0.1609891 -1.0140871
C -0.46007687 -0.50703657 1.024867
O 2.673318 -0.11216566 -1.1450524
H -1.3287389 -0.6590583 1.6946744
H -1.1277434 1.3230193 0.1591249
H -1.5640242 -0.108258344 -0.75149196
