10

N 0.07350066 -3.194051 -1.4757653
C 0.0729316 1.2942139 -0.06592954
C 0.053940233 -2.1405873 -1.0112721
N -0.19017646 -0.727893 0.99762625
C -0.1605269 0.5345835 1.205203
C 0.021580208 -0.8281885 -0.40528542
N 0.17662518 0.24642931 -1.0709532
H 0.99681777 1.8820012 -0.049111627
H -0.75153244 1.9690499 -0.3176064
H -0.2931598 0.9644417 2.1930945
