10

N 0.60164577 -0.17030264 3.3055797
C 0.35254803 -0.027633816 2.1857853
C 0.042964444 0.13517438 0.79776466
N -0.65341294 1.1209477 0.28467909
C -0.7013449 0.86284584 -1.0549486
C -0.02509321 -0.29233295 -1.3507531
N 0.4507205 -0.75405145 -0.15323026
H -1.2218748 1.5239661 -1.7338283
H 0.15577066 -0.8118321 -2.2781425
H 0.99807644 -1.5867811 -0.0029060799
