10

N 0.59584524 -0.34328762 1.04325232
C 1.10482417 0.62884445 0.38468281
C -0.54837670 -0.68962166 0.27262263
N -0.78589298 -0.02546776 -0.78777427
C 0.29964786 0.94279119 -0.84024482
C -1.38686075 -1.77777907 0.72374965
N -2.04377476 -2.64507348 1.10082615
H -0.10886465 1.95845038 -0.83393830
H 0.86556658 0.81258703 -1.76875184
H 2.00788597 1.13855651 0.70557558
