10

N 0.22714289 1.7672035 0.3949483
C -0.20120479 0.4800657 0.16458265
N -1.4024441 0.048668895 0.3586426
O -1.3370105 -1.3372647 0.103049025
C -0.08098415 -1.6977441 -0.25907406
O 0.2798973 -2.8102317 -0.5201513
N 0.6450816 -0.5150103 -0.25026503
H 0.756521 2.1751578 -0.36386546
H -0.5358975 2.36698 0.67747384
H 1.6488985 -0.4778247 -0.30534062
