10

N -1.6959997 -0.112064295 -0.8468141
C -0.46529052 -0.29507914 -0.29643458
N 0.13979357 -1.4632888 -0.2699174
O 1.3373559 -1.2151942 0.48450983
C 1.3056796 0.061045833 0.7905084
O 2.0677078 0.83237135 1.440137
N 0.23526944 0.6958045 0.3368544
H -1.8714339 0.8102644 -1.2166167
H 0.9564197 1.5580895 1.0073268
H -2.009502 -0.8719491 -1.4295535
