10

O 1.9831873 -0.32988042 -0.44009826
C -1.4238585 0.40916097 0.07953677
C -0.26245558 0.52529997 -0.6061697
C 0.73106605 -0.29217735 0.08035157
N 0.41952145 -0.94339013 1.1313635
N -2.0552197 -0.06844124 1.0340465
H -2.5119624 0.8451068 -0.040605098
H 2.0267775 0.20705885 -1.2413957
H -0.115909494 1.1171982 -1.4939489
H 1.2088536 -1.4699358 1.4969193
