10

O 0.5244089 -2.103321 -0.055122714
C 0.6491658 0.29115412 -0.061333045
C -0.16676554 -0.93060684 0.040422138
C 0.08475173 1.483306 -0.15230529
N -0.3903735 2.5807486 -0.350363
N -1.4190649 -0.9046326 0.21647592
H -0.68089116 3.1276572 0.4557571
H 1.4437274 -1.9359769 -0.2986347
H -1.7773892 -1.8590411 0.24224946
H 1.7324303 0.25071287 -0.037145887
