11

C -1.77027193 1.13101217 -0.53670744
C 0.88166007 -0.69304179 -0.08420955
O -0.14916591 -1.56880649 -0.47843692
C 0.32464241 0.57902117 0.53064885
O -0.47334509 1.24537693 -0.47278960
H -2.08237191 0.54729829 0.37085688
H -0.55191155 -1.21713861 -1.28212376
H 1.47816537 -1.21768624 0.66940666
H 1.54229760 -0.42914478 -0.92303523
H -0.31791733 0.34947766 1.38824572
H 1.11821821 1.27363194 0.81814429
