10

N 0.9326207 0.3002179 0.2261263
C 0.8174706 -1.507121 0.10694917
O -0.73249215 -0.9516901 -0.18145126
N -1.233477 1.2824829 -0.13016623
C -0.34878272 0.27293953 -0.026118152
O 0.99901706 -2.1653764 1.0758269
H -0.91076285 2.2313683 -0.20901625
H 1.1843319 -1.6523423 -0.9116341
H 1.4567654 1.1235998 0.49653572
H -2.1646907 1.0659218 -0.44705212
