11

N -1.4804021 0.7627918 0.28424153
C 0.93821824 -0.4660961 -0.20264871
C -0.98680127 -0.21323963 1.2926383
C -0.8250468 1.0405436 -0.7695949
C 0.19664603 -0.7870239 1.0048027
N 2.0430138 -0.9818128 -0.5179915
O 0.3461532 0.49733692 -1.0743724
H -1.1776477 1.7580603 -1.5002482
H -2.114295 0.5239991 1.2231671
H 2.4012935 -0.6228219 -1.4026935
H 0.65886843 -1.5117373 1.6626993
