11

N -0.05295406 -1.0577421 0.07456125
C 1.7594522 0.38378206 -0.68267965
C 1.1850272 -0.87915677 -0.4094479
C -0.9402332 -0.017803987 0.3588431
C 0.8568332 1.3526813 -0.38957492
N -2.0912077 -0.2511982 0.8080083
O -0.43040988 1.2117745 0.09984598
H -0.43756652 -1.972111 0.27469558
H 1.0260161 2.4207819 -0.5111805
H 1.7261565 -1.8075972 -0.5782986
H -2.6011138 0.6165897 0.95522743
