11

C -0.88100445 -0.8005545 -1.189897
C -0.12726912 -0.06363412 -0.14226335
C -0.26350272 1.1325434 0.46948767
N 0.7599873 1.3037552 1.396531
C 1.4471333 0.2214159 1.29653
O 0.98428154 -0.6620606 0.39081648
H -1.2594634 -1.7535595 -0.8072394
H -1.7304794 -0.19647035 -1.5174589
H -0.2484696 -1.009246 -2.057269
H -1.0185052 1.8892629 0.3182108
H 2.3372917 -0.061452273 1.8425516
