11

C -0.60409299 -1.23922842 -1.16047201
C 0.34515141 -0.48142107 -0.32094405
C 0.09280912 1.65389057 1.01402607
N 1.50916738 -0.03003561 -0.28206096
C 0.59541371 0.25760453 0.90759160
O -0.19089047 2.32392681 0.04894277
H -0.11161489 -1.61016166 -2.06180360
H -1.43205577 -0.58113397 -1.43855568
H -1.01265546 -2.07697743 -0.58780561
H -0.01834863 2.04622641 2.04534747
H 0.82711654 -0.26269010 1.83573392
