12

C -1.9021684 -0.22232692 -0.17773467
N 0.379622 -0.99192435 -0.9359143
C 1.5801696 0.5496639 0.54594374
N 0.1996527 0.5342099 0.69553727
C -0.43757465 -0.28764227 -0.1446243
O -2.5338404 0.54483986 0.5255007
H -0.0030426288 -1.3034245 -1.8136569
H -0.35542172 1.1992863 1.2221739
H -2.378827 -0.91638374 -0.89250135
H 2.0448534 1.4598507 0.9257563
H 2.0754943 -0.36933565 0.8593108
H 1.3310832 -0.1968133 -0.8097915
