12

C -1.07656570 1.48841837 -0.04601248
N 0.14931914 0.91884769 0.49242688
C 1.68872375 -0.84931146 0.68490992
N -0.21121775 -1.10007018 -0.75197604
C 0.43412621 -0.26596441 0.11622141
O 2.03956836 -1.98250047 0.45178314
H -1.19892804 2.50337007 0.33811622
H -1.05750583 1.53656800 -1.14465825
H -1.96649789 0.91142092 0.25030476
H 0.13907921 -2.04891117 -0.76787936
H 2.24519598 -0.15278734 1.33734804
H -1.18529731 -0.95908011 -0.96058439
