12

O -0.055076506 -0.5113134 -1.7197813
C -1.4284233 0.8087231 0.6889321
C 0.9366319 -0.18309604 -0.7842145
C 0.33734366 0.22145735 0.56109405
N -0.8943678 -0.5174253 0.85067517
H -0.9080759 -0.757465 1.8385013
H 1.6126193 -1.0346631 -0.6025214
H -0.6685887 -1.096215 -1.2488065
H 1.0296112 0.1764782 1.4070511
H -1.5205426 0.91150767 -0.4136205
H 1.5289636 0.633598 -1.2058873
H 0.029905295 1.3484137 0.6285776
