10

O 0.34720394 -0.3256387 1.221636
C 0.22318007 -1.1454268 0.15003869
C -0.13026556 -0.26470834 -1.035667
O 0.094005205 1.0477636 -0.57280093
C 0.014352519 1.0012273 0.82604957
O 0.3663366 -2.3306608 0.19622386
H 0.7413949 1.6983644 1.2477705
H -0.9985204 1.2264589 1.186602
H 0.51781064 -0.46990684 -1.8926848
H -1.1754979 -0.4374726 -1.3271677
