10

O 0.5466461 0.4639104 -1.2370512
C -0.7644147 0.45836332 -0.6100537
C 1.4969534 0.3326963 -0.3715479
O -1.6330085 1.0703181 -1.1272161
C -0.80219215 -0.4580155 0.6276977
O 0.41950622 -0.84009033 1.1143663
H 2.4323807 0.026716402 -0.8467305
H 1.128371 0.15345198 0.7982989
H -1.4075137 -1.3217424 0.30780452
H -1.4167285 0.11439166 1.3444324
