10

O -0.56362474 -1.8797119 -0.7872888
C 0.2130775 -0.9928978 -0.047642168
C -0.31455827 0.42096877 -0.14695327
O -1.2904805 0.6906121 -0.81292766
C 0.40160078 1.5279604 0.61137575
O 1.3752296 1.3202695 1.2865839
H -1.2614775 -1.3574046 -1.2090217
H 0.23810947 -1.270964 1.0170854
H 1.258367 -0.987951 -0.39295328
H -0.056243237 2.5291188 0.48174155
