10

O -1.9624804 0.9915905 -0.18629006
C -0.8049918 0.3521593 0.041734736
N -0.4760919 -0.29815465 1.1167911
C 0.7994213 -0.7654976 0.8568861
C 1.2162709 -0.38366914 -0.38077682
N 0.15723331 0.34959725 -0.90947664
H -2.492015 0.86168295 0.6136993
H 1.3360816 -1.3520921 1.5891253
H 2.128704 -0.5483338 -0.93246084
H 0.09786775 0.7927173 -1.8092324
