10

O 1.7581072 -0.83858615 0.3170198
C 0.5062992 -0.37170476 0.09173857
N -0.03441495 0.22640553 -1.1326711
C -0.16116682 0.6999894 0.9127766
C -0.7177585 1.1474477 -0.20907737
N -0.39980373 -1.1394354 -0.70480853
H -1.4257365 1.9105628 -0.51005983
H 1.9776711 -1.4280124 -0.42090836
H -0.16676964 0.96227145 1.9589763
H -1.3364273 -1.168938 -0.30298623
