10

O 1.94223053 0.19493613 -0.29053334
C -1.09479417 0.30011591 0.76608289
N -0.18652925 -0.05542109 -1.38457450
C -0.09187224 -0.53305989 1.02787530
C 0.60418018 0.00475693 -0.19458402
N -0.46913530 0.98668932 -0.37648894
H -2.07825137 0.52806184 1.15980935
H 0.14652733 -1.27627022 1.77229529
H 2.10344865 0.65622827 -1.12802237
H -0.87580460 -0.80603718 -1.35185988
