11

O -0.99980687 -0.54528581 -1.32941959
C 0.25658529 1.33582812 0.41905082
C 0.45082698 -0.10508948 0.54549388
C -0.48895939 -1.07935587 -0.13147963
O 1.24285972 0.65319202 -0.36228490
H -0.59303042 1.70679013 -0.14981886
H 0.66257760 2.00323196 1.17816056
H -1.33919619 -1.29160263 0.52422617
H 1.00140499 -0.48882148 1.40576474
H -0.24019700 -0.16334618 -1.79180442
H 0.04693528 -2.02554082 -0.30788866
