10

N -0.82668805 0.4804727 0.18807518
C -0.6323483 -0.80907905 0.4008807
C 1.401163 -0.11460111 -0.47184992
C 0.42980683 1.0227244 -0.37607744
C 0.66823256 -1.1943815 0.02243875
H 0.81191236 1.8183099 0.27373135
H -1.4294215 -1.4184192 0.8188274
H 0.23390712 1.4548371 -1.3631331
H -1.6795803 0.9766192 0.38982716
H 1.0230162 -2.2164826 0.11727984
