10

N 0.560657 0.85414153 0.09566869
C 1.0096885 -0.37080997 -0.30429223
C 0.0010681979 -1.2867186 -0.17246388
C -0.77884966 0.69946915 0.47223532
C -1.1808196 -0.68447 0.4171887
H -1.5200115 0.3878086 -0.44239348
H 0.08912073 -2.3361442 -0.42878893
H 1.0771154 1.7167275 0.03457005
H 2.0221963 -0.48329854 -0.6759468
H -1.2801659 1.5032946 1.0042225
