12

C -0.21396498 0.7948644 -0.89875454
C 1.2067051 -1.0066859 0.6383536
N -0.019455874 1.2595372 0.47372895
N -1.4825476 0.085520454 -1.0990641
C 0.08164201 -0.1440701 0.18109512
O -1.216841 -0.7341718 0.06227129
H -2.289213 0.668821 -0.8646815
H 1.0727808 -1.2902001 1.6859398
H 1.2689818 -1.911826 0.030716296
H 0.3385635 1.2297505 -1.7201008
H 2.1388557 -0.44523057 0.5502553
H -0.8855065 1.4936913 0.96024066
