12

C -0.13335975 -0.28727442 0.15397127
C 0.049273767 1.1087787 -0.52515626
N -1.0826292 0.9707917 -1.3276587
N -0.04375771 0.94659173 0.9045789
C 0.9097727 -1.3584093 0.36191115
O -1.3011378 -0.65823954 -0.32097185
H 0.64987826 -1.9475453 1.2459327
H -0.9379259 1.2596785 1.2754585
H 1.8926327 -0.90732247 0.5167345
H 0.9489555 1.52065 -0.9668849
H 0.9312052 -2.0164905 -0.5080227
H -1.8829079 1.3687911 -0.80989254
