12

O 1.00912939 0.16342475 1.41358366
C -0.23816411 -0.90959522 0.95402393
C -1.09379990 -0.03697287 0.10432151
O 1.28947021 0.72154445 -1.08809363
C 0.37610896 0.26505308 -1.75339283
O -0.80117175 -0.12634698 -1.33079393
H -2.12164161 -0.40394238 0.13965709
H -0.74732754 -0.91402185 1.93061727
H 1.71395889 -0.47952063 1.60614668
H 1.27092767 0.52636951 0.51114652
H -1.11214522 1.03816762 0.35500946
H 0.45465488 0.15584027 -2.84222578
