10

C 0.88336986 -0.31298018 0.6134204
C 0.24408138 -0.85003805 -0.6242238
N 1.1344167 0.97897184 0.8889425
N 0.37763062 1.7376707 0.12143998
C -0.82345724 -0.3726839 0.082512826
C -0.60195804 1.0457156 -0.39860928
H 1.3369421 -1.0559692 1.2688885
H -1.7618934 -0.82861817 0.40147936
H -1.2146404 1.4405183 -1.2023598
H 0.4255084 -1.7825868 -1.1514907
