10

C -1.1895534 0.3745096 0.60839933
N 0.62526494 -0.9735135 -0.49182016
N 2.0214806 0.6001843 -0.7718085
C 1.8558015 -0.7785019 -0.99488777
N 0.105005 0.17954886 -0.0054852865
N 0.9856802 1.1197413 -0.19489709
H -1.2717892 -0.2403898 1.5067527
H -1.97989 0.12032571 -0.10079994
H -1.2536211 1.4298478 0.87364227
H 0.1016215 -1.8317524 -0.42909554
