10

C -1.5430143 1.4187641 0.13207027
N -1.0836679 0.3214109 0.78360164
N -0.62176543 1.508608 -0.8997586
C 0.7506602 -1.2746059 0.5276334
N 0.32199124 0.5870187 -0.91798365
N -0.003289811 -0.10405502 0.12455898
H 1.6372955 -1.3438492 -0.10045195
H -0.60078555 2.2062218 -1.6305069
H 0.12168628 -2.1565843 0.40343037
H 1.0208895 -1.162929 1.5774064
