10

C 0.2574857 -0.62419826 -1.4349166
N 0.113324836 -0.06982422 -0.10537462
N -1.0252136 0.41044182 0.36433765
C -0.66157156 0.78356975 1.578738
N 0.6406042 0.5403386 1.8282329
N 1.1154841 -0.0011294916 0.74365485
H -0.38711622 -1.4977738 -1.53941
H 1.3018892 -0.9075388 -1.5548158
H -0.019239236 0.12981468 -2.1734664
H -1.3356477 1.2362996 2.29302
