9

N -0.84271663 -0.6571977 -0.94338584
C 0.9639547 -0.6792518 0.26480958
C -0.6918802 0.6318187 -0.3218413
N 0.14753802 -1.4215832 -0.50530744
C 0.4872137 0.6117069 0.43622226
H 1.8561789 -1.1281513 0.68544793
H 0.9137719 1.417493 1.0155338
H -1.2880436 1.4644089 -0.67642397
H -1.5460169 -0.23924325 0.04494506
