9

N 0.7966897 -0.78309035 1.0159284
C -0.480161 0.40098122 -0.5396623
C 0.8054113 0.7662061 -0.5580118
N 1.5476054 0.017046358 0.40947717
C -0.5738402 -0.6522111 0.506343
H -0.8990474 -1.6285993 0.12835856
H 1.3266466 1.4989896 -1.1607789
H -1.2927141 0.7764531 -1.148054
H -1.2305902 -0.39577568 1.3463999
