9

N -0.11992804 -0.8481713 0.44966027
C 0.3595198 0.37628543 0.8596154
C 0.27678663 1.1771449 -0.24523067
N -0.23627108 0.4823902 -1.3124561
C -0.4627898 -0.72710216 -0.8616263
H -0.20434055 -1.6764485 1.0138988
H 0.70091623 0.548842 1.8686953
H 0.55581164 2.21791 -0.34032986
H -0.86970484 -1.5508507 -1.4322268
