11

N -0.6229269 -0.13147344 -1.6144975
C -0.89957833 0.112217255 -0.19639932
C 0.22958058 0.28927127 0.73653734
N -0.09826636 -1.2371756 -1.8170928
N 1.2742571 1.114035 0.9895592
C -0.44894278 -0.8154991 0.886118
H 1.1256462 2.0929682 0.7935886
H 1.7896014 0.9375845 1.8366967
H -0.59063715 -1.7820936 1.3310605
H -1.7996408 0.7258664 -0.11060616
H 0.0409069 -1.3057009 -2.834965
