11

N 2.0356374 -0.35778895 -0.9597704
C -0.7386104 0.10485979 -0.016876126
C -0.7464973 -0.640328 -1.1490073
N 1.7381809 0.065168306 0.18162598
N -1.8231101 0.6737337 0.61544037
C 0.48334363 -0.09168426 0.6797585
H -1.7506223 0.75623333 1.6198888
H -2.7163072 0.3297379 0.2936469
H 2.9589267 0.02713228 -1.187967
H 0.44955522 -0.29651058 1.7512494
H 0.10950366 -0.57055354 -1.8279892
