11

O 0.18563916 -1.9087076 1.1286749
C 0.02809247 -0.7663417 0.41446236
C -0.8748037 -0.36697677 -0.53768903
C -0.5012926 0.9648134 -0.9082262
C 0.59748524 1.3153578 -0.17582849
N 0.91592175 0.24082391 0.6362671
H -0.5075516 -2.5218673 0.8630285
H -1.7001472 -0.94913435 -0.9252313
H -1.0021644 1.5827374 -1.6390986
H 1.1835793 2.2203052 -0.15167433
H 1.6752415 0.18899003 1.295315
