11

O 2.1609216 -0.43618554 0.28879473
C 0.4680477 0.71024734 -1.0479903
C 0.85780376 -0.14798698 0.07997947
C -1.3915755 0.15853389 -0.015245764
C -0.26578248 -0.49661517 0.7277348
N -0.79461044 0.899931 -1.1240779
H -0.36677215 -1.1244661 1.6032696
H 2.2395704 -1.0043426 1.065129
H -2.1101408 -0.56370825 -0.42428973
H 1.1720228 1.1455364 -1.7550212
H -1.9694853 0.85905606 0.6017174
