11

O 1.62336970 -0.24217051 1.49975556
C -0.44160550 -0.76571904 0.25597617
C -1.09976985 -0.02132517 -0.86712124
C 0.70226805 1.10875402 -0.31509961
C 0.65534486 -0.05984805 0.57538293
N -0.27620466 1.15516349 -1.13760317
H -0.79683260 -1.68767734 0.69729634
H -1.17348295 -0.61551597 -1.78733341
H -2.11796197 0.31298917 -0.62863998
H 1.48511852 1.86466782 -0.28883817
H 1.43975632 -1.04931840 1.99622448
