11

N -0.35741997 0.4946715 1.9630367
C -0.15659505 0.18103246 0.6141457
C 0.52303123 -0.8696193 0.053597815
N 0.3446098 -0.7141743 -1.3137418
C -0.42056787 0.386655 -1.494599
N -0.7383607 0.95696527 -0.3569071
H -0.74771875 1.4237727 2.0461357
H 0.4784219 0.4160229 2.5278368
H 1.0814501 -1.6933497 0.46937004
H 0.7104449 -1.3142229 -2.0324643
H -0.7172955 0.7322463 -2.4764106
