11

N 0.6972081 0.10023653 0.94821995
C -0.2496607 0.23694816 0.021367352
C 0.8394006 -1.3028337 -0.80347645
N 1.3879094 -0.900401 0.39500558
C -0.3000395 -0.5570032 -1.1214463
N -1.284226 1.2754185 0.24514309
H -1.8463796 1.1133171 1.0842826
H -1.8711915 1.1714518 -0.59173614
H -0.9052007 2.2246406 0.28596902
H 2.2034965 -1.2486429 0.8707753
H 1.3286836 -2.1131318 -1.3341042
