10

O 0.73906106 -1.3958912 1.0887413
C -0.840415 -1.1262813 -0.683377
C 0.13322061 -0.5185927 0.24913238
O -1.0361044 -2.3234518 -0.6557803
C 0.346707 0.77181536 0.22072922
C 0.5028013 2.0634956 0.12836461
H -1.362932 -0.4529964 -1.3831078
H 1.2513689 2.496283 -0.53200334
H 0.36906585 -2.2630463 0.8491492
H -0.10277329 2.7486656 0.71815175
