11

N -1.2969114 2.2382882 -1.1511729
C 0.21753424 0.11397143 -1.2120364
C 0.440317 -0.6818653 0.00863218
C -0.16379166 -0.32425734 1.3388252
C -0.6148627 1.3066357 -1.1754067
O 1.4474628 0.17738773 -0.5074335
H -1.101593 -0.8698783 1.4861726
H 0.6508812 -1.740689 -0.15242715
H -0.3625724 0.748152 1.4074422
H 0.52204293 -0.60166633 2.1447535
H 0.2614929 -0.36607918 -2.1873493
