10

O -1.2585291 -0.004868454 -1.3509108
C 0.66461086 -1.1054809 0.15993461
C -0.46006724 -0.018963967 -0.25385937
N -0.56612515 -1.1750726 0.54755557
N 1.5961648 0.27639255 1.2851666
C -0.03370382 1.3271126 0.14843144
N 0.9348502 1.2275722 0.9989679
H -0.39266348 2.2380755 -0.29596448
H 1.3302875 -1.9640772 0.0800322
H -1.8148246 -0.8006897 -1.3193536
