10

O 1.4496086 -1.2699574 0.8694418
C 0.5476746 -0.45493758 0.32203013
C 0.88262796 0.89345104 0.08434788
N 0.00620667 1.7131863 -0.4558311
N -1.2073852 1.2587341 -0.77768886
C -1.4680114 -0.013255596 -0.53326327
N -0.6409581 -0.9193134 0.0117076645
H 1.0344416 -2.1444154 0.95082873
H 1.8571955 1.2965155 0.3342112
H -2.4614 -0.36000744 -0.8057843
