11

N -1.0527672 1.718344 0.014809247
C -0.2758578 0.07978795 -1.0613803
C 0.5640416 0.071673475 0.9487115
C 0.034966793 -0.99408036 -0.019217258
C -1.4728637 0.86928976 -0.84639597
O 0.5386717 1.1677037 -0.007260297
H 1.5968767 -0.065556474 1.2694473
H 0.19538842 0.090338334 -2.0397687
H -0.08495679 0.29453057 1.7978938
H -0.8567518 -1.544785 0.28853098
H 0.8132519 -1.6872462 -0.34537038
