9

O -0.66981683 -0.07492849 2.03041150
C 0.93635733 1.91215079 -3.21819279
C 0.28332323 0.52132408 -1.23537076
C -0.02908095 -0.14139020 -0.28690562
C -0.37841122 -0.89795268 0.92518808
N 0.62892112 1.25556030 -2.28795744
H -1.28337098 -1.48497283 0.74465228
H 0.07725027 0.51626126 2.18143804
H 0.43482811 -1.60605220 1.14673717
