11

N 2.87017122 0.71157340 0.24822510
C -1.08909980 -0.83966108 0.93060515
C -0.17345576 -0.83516615 -0.02670574
C 0.40002235 0.43131860 -0.62657179
C 1.78341049 0.61207249 -0.12897392
O -0.31641537 1.59796281 -0.30394003
H -1.47647132 -1.77364039 1.32751034
H -1.22133977 1.46962315 -0.61804126
H -1.47537210 0.08191460 1.35567120
H 0.47945492 0.30642503 -1.71748159
H 0.21909499 -1.76242228 -0.44029708
