11

N 0.58072865 -0.053587206 2.8261974
C 0.4237656 -0.9748738 -0.9734959
C 0.3524981 0.42625785 -0.7117601
C 0.040219713 0.17560415 1.8275576
C -0.6951265 0.47560865 0.55703986
O -1.5842052 -0.4 0.18446615
H 1.0779532 -1.3597643 -1.7570248
H -0.1339192 -1.6709731 -0.3583861
H -0.3596472 0.89656377 -1.4049664
H -1.015992 1.5350137 0.62350863
H 1.3137246 0.9501502 -0.8131364
