10

N -3.21791131 -0.75864533 -0.67031502
C -2.09115564 -0.66151358 -0.43149629
O -0.29124341 0.77144682 -0.05478942
C -0.65740191 -0.60304876 -0.13103311
C 1.00786529 0.97955918 0.20788077
N 1.82936984 0.03540789 0.37393035
H -0.08665486 -1.10849857 -0.91655128
H -0.45122049 -1.10932522 0.81666799
H 1.19711855 2.05618205 0.24516509
H 2.76123426 0.39843562 0.56054106
