10

N 0.6372871 -1.2092003 1.133752
C -0.598395 0.22473368 -0.5976292
O 0.48930514 0.7909359 0.15687966
C 1.075322 0.055885877 1.0907346
C -1.2346961 1.3140264 -1.3441471
N -1.7528147 2.1486201 -1.9480482
H -1.3279477 -0.2553633 0.06012164
H 1.0631849 -1.6576779 1.9485173
H 1.8670541 -0.87591714 0.7863512
H -0.2182995 -0.5360433 -1.2865318
