11

O -0.44209835 -1.1870862 -0.1781699
C 0.28761587 -1.278913 0.9455757
N 0.47189748 -0.3110402 1.73558
C -0.99070853 0.10141791 -0.46320704
C 0.74503005 1.7331849 -1.6606722
C -0.020564614 0.99057275 -1.1099037
H 1.0465057 -0.6020462 2.521452
H -1.8256847 -0.09677564 -1.1393965
H -1.3620034 0.55790573 0.45794034
H 1.4282843 2.3962379 -2.145277
H 0.6617261 -2.3034577 1.0360785
