11

O 0.37862742 1.5568572 0.25194958
C -1.0607885 0.046581194 0.057215977
N 0.5039742 0.1488047 -1.4246756
C -0.5530248 -0.8481893 1.0399008
C -0.16727704 -1.6268729 1.8735008
C 0.9909563 1.146275 -0.7638733
H -1.6202672 0.8938883 0.43515372
H 0.17338406 -2.3092666 2.621153
H -1.5455816 -0.43813226 -0.77992326
H 1.9206188 1.6440648 -1.0671791
H 0.9793783 -0.21401006 -2.243223
