11

C 0.28243095 -1.1388981 -0.020201106
C 0.6752608 0.34748393 -0.13647176
N 0.78266656 1.1509947 1.0518593
C -0.61268634 -0.14224295 -0.64077824
N -1.73098 0.20418683 -1.0965561
H 1.4595798 0.5533034 -0.86064434
H 0.022060998 -1.5241282 0.9653061
H 0.07597102 0.8738808 1.7256113
H -2.3616874 -0.5986352 -1.1584178
H 0.58580136 2.1203759 0.8163989
H 0.8215822 -1.846321 -0.6461065
