11

C -0.52418 1.0417081 0.5434827
C -0.075873055 -0.048845638 -0.43087164
N 1.3772695 -0.14458388 -0.4497623
C -0.72214484 -1.3469367 -0.10310588
N -1.1612519 -2.382696 0.16454855
H -1.6113548 1.1611434 0.5317942
H -0.21973778 0.79438716 1.566636
H -0.05477401 1.9866486 0.25943622
H -0.4019451 0.22494629 -1.4404271
H 1.680382 -0.856734 -1.1058512
H 1.7136103 -0.42903763 0.46412084
