11

C 0.22240738 0.50565956 -0.53869294
C -0.74189793 -0.49972516 -0.07795210
N 0.68131779 1.57697378 0.30450534
C 0.65736105 -0.94262113 -0.23792051
N -1.91566896 -0.67811128 0.33286140
H -2.03728672 -1.63272411 0.67936592
H 0.73638702 1.26348552 1.26827136
H -0.00338561 2.32853329 0.28911157
H 0.21861724 0.76749952 -1.59385612
H 0.93464657 -1.56495189 -1.08568578
H 1.24750248 -1.12401840 0.65999225
