9

O -0.4442428 -1.6756656 1.0236171
C -0.022304144 0.6562327 0.8715307
C -0.15896109 1.4360545 -0.09379432
C 0.35508522 -0.6818088 0.7831112
C 0.36825806 -0.39423823 -1.6371512
N 0.2415632 0.6625825 -2.1558146
H -0.387414 2.326322 -0.6443228
H 1.3971827 -0.9748721 0.68936986
H -1.3491671 -1.354607 1.1634544
