12

C -0.96931887 0.315999 -1.1554539
C -0.07146663 1.0019318 -0.14019504
N 0.12668489 -1.1885865 1.4435683
C 1.1539536 -0.7704538 0.83007336
O 1.1674764 0.3035198 0.029220955
H 2.1610992 -1.1981555 0.8661338
H -1.8677459 0.92066646 -1.3180947
H -0.56812835 1.0908312 0.83090615
H 0.36402974 -2.0026746 2.0039227
H 0.22940923 1.992652 -0.48667052
H -1.2751791 -0.66822433 -0.79031986
H -0.4508143 0.20249441 -2.1130912
