12

C 0.16536121 -1.0568957 1.3450178
C -0.5062761 1.3203698 -0.65321964
N 1.1859657 -0.8636651 0.5731142
C -0.20092858 -0.1207809 -0.91070026
O -0.97951 -0.76775193 0.90881103
H -0.520185 1.8373089 -1.6243296
H 0.6966547 -0.28490824 -1.496611
H -1.4683057 1.4529994 -0.15642253
H 2.1051688 -1.0975113 0.9348121
H -1.0264933 -0.7424019 -1.2347693
H 0.28355327 1.7763777 -0.04977954
H 0.26499528 -1.4531405 2.3640769
