12

C 1.0658318 -0.62240165 -0.25969833
C -0.7237033 0.46742564 -1.5176474
N -0.02497627 0.060257394 -0.3179935
C -0.063101135 0.01994653 1.7883207
O 1.4992542 -0.9002955 0.8930164
H -1.7295367 0.029794678 -1.5463498
H -0.83375365 1.5580294 -1.542059
H -0.6252232 0.9363651 1.64135
H -0.18768789 0.15910216 -2.4237285
H -0.6809261 -0.86487 1.879982
H 0.696058 0.11945541 2.5562406
H 1.607764 -0.9628094 -1.1514337
