10

O -0.3811031 1.6365927 -1.2181942
C -0.1708792 0.6062846 -0.3558802
C 0.51578695 -0.573095 -0.5345508
N 0.40913954 -1.2356536 0.65068334
N -0.28845355 -0.5667559 1.5682806
C -0.65021443 0.5581946 0.97189945
H -0.03417107 1.3976411 -2.0857716
H 1.0511748 -0.9828415 -1.3771702
H 0.7872308 -2.1379507 0.8830609
H -1.2385108 1.2975835 1.4976429
