10

O -1.8490022 -0.7525551 -1.4457896
C -0.43792126 -0.14357415 0.32963535
C -0.97746134 -1.0436195 -0.44576088
N 1.8065277 1.311592 -0.2498617
N 1.5179654 1.1330733 0.9490746
C 0.1927694 0.6456892 1.1654364
H 2.7906632 1.6131774 -0.25980872
H -2.0960176 -1.5722344 -1.8879701
H -0.73397076 -2.0964594 -0.29460037
H -0.21355246 0.9049105 2.139645
