11

C -1.3066885 -0.7875343 0.6814887
N -0.1287335 -0.052265458 0.26500627
C 0.39769495 0.10067394 -0.9723368
C 1.4895104 0.9046138 -0.76883775
N 1.5693709 1.191974 0.55561846
N 0.5915275 0.61295736 1.173316
H -1.3648784 -0.70886 1.7667898
H -2.2051806 -0.35443 0.23394994
H -1.2207828 -1.8378894 0.39426938
H -0.030744797 -0.35654035 -1.8522265
H 2.2089052 1.2873002 -1.4770373
