11

C -0.93798825 0.47551191 1.48304132
N -0.63116691 1.06354621 -1.21778718
C -0.09796941 -0.19130179 0.72073682
C 1.15721520 -0.51871972 -1.35751515
N -1.63142176 1.15632056 2.21756781
N 0.05242160 0.21786351 -0.68205310
H 0.46951767 -1.03201736 1.09607769
H -2.61061383 0.88778998 2.29229530
H 0.94751438 -1.59112076 -1.33223041
H 1.18346602 -0.14777859 -2.38046271
H 2.09902563 -0.32009415 -0.83967020
