12

C 0.5810663 -0.5572362 -1.1261817
N 0.19301553 -1.2880908 0.058152918
C -0.598365 0.87392426 0.17633069
N -1.2435104 1.8722038 0.58516455
C -0.10234082 -0.26226154 1.0447053
O -0.20977142 0.6291688 -1.1038785
H 1.6436574 -0.25966972 -1.1312078
H -0.872595 -0.5755639 1.7522091
H -1.4412504 2.5158303 -0.17872962
H 0.7769183 0.08648904 1.6082387
H 0.9264916 -1.9229679 0.35126567
H 0.34668386 -1.1118264 -2.036069
