12

N -0.60385656 1.0518614 -0.027448086
C 1.0520581 -0.53355545 -0.40187645
C 0.25282654 0.16316628 0.74233305
C -0.5964153 0.567264 -1.3357227
N -0.52148026 -0.7623131 1.511389
C -1.1954987 -1.5154641 2.103243
N 0.2891956 -0.29470393 -1.6269492
H -1.3005087 0.974095 -2.0574536
H -1.4871941 1.3180194 0.3836182
H 1.169694 -1.6042113 -0.22118893
H 2.0475497 -0.087280914 -0.49600393
H 0.8936298 0.72312266 1.4260595
