12

N -0.9248736 2.077273 1.7887361
C -0.85416937 1.2742441 0.96309817
C -0.76075387 0.22296093 -0.06838608
C 0.39528865 0.47387943 -1.0851392
N 1.4843203 -0.4127046 -0.68173486
C 1.0047265 -1.1947287 0.19845317
N -0.34484974 -1.0548762 0.50933844
H -1.7322758 0.13596648 -0.56232303
H 0.07318592 0.21495156 -2.0980692
H 0.7267056 1.5154343 -1.0909214
H 1.5756904 -1.9891278 0.67455125
H -0.6429953 -1.2632722 1.4523968
