12

N -1.0133929 0.04647068 -0.57064277
C 0.6814727 -0.43237227 1.0273554
C -0.018413726 0.7829291 0.41677466
C -0.504433 -1.3012176 -0.64262253
N 1.2890028 2.6323028 -0.8053455
C 0.7228628 1.7678769 -0.27160686
N 0.41463354 -1.5981911 0.16426343
H 0.2973345 -0.680526 2.025853
H -1.2166497 0.52836597 -1.439459
H 1.7612664 -0.27738872 1.1233162
H -1.4688966 0.5147731 0.33620772
H -0.94478685 -1.9830227 -1.3640939
