10

N -0.74063885 0.38054685 -1.49886663
C -0.42231015 -0.78022175 -0.75023949
O -0.65731363 -0.58808920 0.63017751
C -0.97727850 1.34420210 -2.12589352
C 0.24723523 0.16173996 1.29353901
N 1.23857518 0.68428327 0.71586534
H -1.08273466 -1.59829477 -1.04117349
H -0.03155913 0.19886477 2.34941648
H 1.80191318 1.22582736 1.36370568
H 0.62411140 -1.02885845 -0.93653064
