10

C -0.93249357 0.37735614 2.3671234
C -0.4745324 0.21042463 1.2667522
C 0.066541195 0.009130547 -0.033789504
C 1.3401531 0.12002964 -0.549455
N 1.3047848 -0.19680035 -1.8660198
N 0.08804408 -0.49782988 -2.201752
N -0.66521245 -0.37850806 -1.111451
H -1.3303767 0.5256088 3.3481905
H 2.2560954 0.4025159 -0.055462774
H -1.6530036 -0.57192737 -1.1641365
