11

N -0.42423835 -1.6489556 -1.0620525
C -0.23418334 -0.48824835 -0.35777152
C 1.0124332 -0.1324525 0.1997359
N 1.162894 1.0164211 0.82087487
C 0.064569935 1.7902042 0.8719814
N -1.1213423 1.4926302 0.37008163
N -1.2772489 0.32727158 -0.25114125
H 0.18074927 -2.4288576 -0.8612444
H -1.3895813 -1.887295 -1.2349502
H 1.8759099 -0.7914042 0.13315655
H 0.15003777 2.750686 1.3713295
