11

N 0.22519971 -1.37884685 0.21571620
C 0.48544895 0.09075429 0.36503856
C 1.07437388 -0.82314996 -0.56361292
N 1.20039813 0.61043561 1.46747728
C -2.10421927 0.32814677 -1.69961814
N -0.58622021 1.01876117 0.04341059
N -1.39059612 0.59255910 -0.78969231
H 1.85258953 -0.06918100 1.84239994
H -3.06179836 -0.16966400 -1.70696767
H 1.73962973 -1.11614624 -1.36805885
H 0.56519393 0.91633093 2.19390730
