11

O -0.8151293 2.1585515 -0.6995293
C -0.42273846 1.0839089 -0.309877
C 0.34630406 0.0010834223 -1.0785985
C 0.5429402 -1.0875823 -0.05662805
C -0.015076067 -0.6947359 1.0921876
N -0.5896508 0.57877 0.963919
H 1.282304 0.4215913 -1.4613503
H -0.23940447 -0.31384248 -1.948582
H 1.0510209 -2.0237076 -0.23472552
H -0.07196798 -1.2093581 2.042491
H -1.0686017 1.0853221 1.6906934
