10

O -0.1705184 -1.1673009 -2.092044
C 0.59062743 -0.8070307 0.24494506
C -1.0370088 0.50491506 -0.5823369
C 0.1972621 0.36731264 0.98720515
O 1.5080116 0.2656761 0.5480736
C -0.19119251 -0.5555994 -1.0486307
H -1.3207757 1.448338 -1.0462229
H -0.08366368 0.517177 2.0233173
H 0.79711616 -1.7731194 0.6888719
H -0.2898581 1.1996317 0.27682137
