10

O -1.8534745 -1.2015834 0.06383266
C 0.02925867 0.22631231 0.7287836
C 0.70975584 1.3319526 0.038622454
C -0.69810057 -0.75418574 -0.09137037
O 1.4354225 0.2224546 0.5224887
C -0.54456925 -1.3931745 -1.3084066
H 0.64116114 1.4022582 -1.0451381
H -0.25153396 -2.4438367 -1.2438726
H 0.8516739 2.263776 0.5824213
H -0.319594 0.34602696 1.752639
