12

N 2.168667 0.39279753 -0.69674784
C 0.88635194 0.16710217 -0.28480992
N 0.70516175 -0.84098315 0.5856835
C -0.53926045 -1.0238642 1.0060999
C -1.6094892 -0.2402814 0.58783525
C -1.2958996 0.7638237 -0.32139465
N -0.06329406 0.9825421 -0.770289
H 2.2938468 0.96651155 -1.5141262
H 2.8337805 -0.34384924 -0.5291812
H -0.69090706 -1.8406967 1.7105204
H -2.6194868 -0.4049454 0.9389316
H -2.0694704 1.4218428 -0.71252185
