12

N -1.60675093 -1.02483672 1.01077782
C 1.35486629 0.88290678 -1.00650684
N 0.65188542 -0.85144469 0.51491048
C 1.60478198 -0.20429045 -0.20324699
C -0.56109919 -0.38927992 0.37375204
C 0.04889143 1.41422121 -1.16878213
N -0.84283728 0.66948827 -0.43132549
H 2.17532586 1.35930568 -1.53219829
H 2.61038806 -0.60177942 -0.07971444
H -1.28530586 -1.73633753 1.65497850
H -2.33127133 -0.43741204 1.39440181
H -1.81887403 0.91945860 -0.52704648
