11

N 1.45177159 -1.23888425 0.73517608
C 0.01890852 0.90003250 0.64921196
C -1.12232108 0.21369920 -1.08435656
N -1.05082881 1.21796528 -0.30213732
C 0.55079649 -0.47992915 0.27122188
N -0.23450594 -0.81703381 -0.82834035
H -0.37241599 0.90843401 1.67315911
H -1.82277910 0.13224611 -1.91157676
H 0.80813532 1.65839201 0.59384133
H -0.13717224 -1.68094761 -1.33615111
H 1.91041116 -0.81397419 1.53995175
