11

N -0.6123817 1.4001628 -0.5860889
C 0.3847727 -0.5635848 0.37628752
C 0.38085526 0.96268284 0.40010393
N -0.57350445 -0.8543779 -0.59145254
C -1.0903966 0.3299586 -1.0877792
N 1.0248475 -1.4570317 1.0048409
H 1.3671024 1.3661252 0.1439695
H -0.81921315 -1.791515 -0.8654853
H -1.8571515 0.30559817 -1.8578849
H 0.11875015 1.3440591 1.3938475
H 1.6763197 -1.0420777 1.6696415
