9

O -0.2890153 -1.0485244 1.1748081
C -1.007485 0.31945035 -0.7419967
C 0.022662334 -0.29568458 0.112912335
O 1.6802944 1.2044377 -0.6394354
C 1.3617662 0.30588058 0.10869086
N -1.356398 0.59152675 -1.8740826
H 2.0592709 -0.17777073 0.8193722
H -0.93327737 -1.7272987 0.9187744
H -1.537818 0.8279831 0.12095665
