9

O 0.08744882 -0.83792772 -1.78534224
C -0.54660607 -0.60031129 -0.78817068
C 0.15268633 -0.16480400 1.48719841
O 1.05716205 1.13345910 -0.30422502
C -0.07471183 0.49005150 0.17429538
N 0.32368150 -0.70545852 2.49305595
H 1.36471356 0.61024530 -1.06304954
H -1.47148494 -1.13782074 -0.51582970
H -0.89288946 1.21256621 0.30206738
