10

O 1.6652751 -0.12703848 -1.4470894
C 1.1592563 0.78921854 -0.8426166
N 0.27517846 0.6466838 0.18753073
C -0.21457362 -0.65822154 0.5737887
C -1.6476742 -0.8176485 0.2836793
N -2.7773497 -0.91774046 0.075033985
H 1.3825977 1.8501574 -1.0555476
H -0.1515698 1.4709082 0.581941
H 0.3580459 -1.3933386 0.0032043739
H -0.04918611 -0.8429805 1.6400753
