11

C 2.59104811 -0.16061893 0.30768516
N 1.49450658 -0.36624984 0.66560484
C 0.09115170 -0.51442399 0.99654404
C -0.66043083 0.32452548 -1.14542294
N -0.76595638 0.39996925 0.30871374
H -0.57675476 1.34340055 0.62603594
H 0.34737991 0.54604339 -1.52268293
H -0.19956039 -1.53970033 0.74412923
H -0.93845878 -0.68342429 -1.47130109
H -1.36964217 1.03000141 -1.58561031
H -0.01328277 -0.37952235 2.07630461
