11

C 0.20747158 1.336724 0.06480679
C -0.35054556 0.09855206 -0.45295826
C 0.7617933 -0.99069524 -0.088679686
O -0.6304944 0.102226116 -1.70484
C -1.4870876 -0.12261636 0.5537372
N -2.3547847 -0.29519352 1.2968571
H 0.03781653 2.2503297 -0.50659657
H 1.0052975 -1.0196196 0.97689825
H 0.3188951 -1.9406811 -0.3934559
H 1.6475936 -0.7841532 -0.69281906
H 0.84404486 1.3651268 0.94705003
