11

C -1.0271786 -1.0109122 0.13828503
C -0.16898288 0.14936458 -0.13884023
C -0.7442467 1.479882 0.061400086
O -0.7670915 -0.5904383 -1.18987
C 1.3358343 0.07487851 -0.027052257
N -1.1678777 2.538791 0.23951046
H 1.6652497 0.4041675 0.96270746
H -2.0478745 -0.8610429 0.4830559
H 1.6626552 -0.95573163 -0.18735096
H 1.8072897 0.71297795 -0.779394
H -0.54777694 -1.9419367 0.43754855
