11

C -0.39028529 -0.59309155 -1.26177723
C 0.11219917 0.20055070 -0.13165253
C 0.28684533 -0.39324914 1.24654192
O 0.98495964 -0.27171596 -1.14405519
C -0.11804335 1.64528484 -0.16379136
N -0.31309699 2.78297438 -0.15423200
H 0.44751199 -1.47102281 1.16136576
H -0.91514704 -0.10268048 -2.07857893
H -0.64493969 -1.63648420 -1.08101733
H -0.60090171 -0.21182318 1.85937131
H 1.15089814 0.05125785 1.74782574
