10

N 0.5417381 0.59437555 -0.42014614
C 0.047874518 0.3470661 -1.7118566
C 0.03046765 -0.15347898 0.70790654
N -1.0754622 -0.0014378249 1.4784435
C 1.1407907 -0.6321366 0.2781232
O 0.5691085 -0.40369332 -2.4939237
H -1.0518116 -0.47230434 2.3710346
H 2.0399337 -1.2147546 0.24501304
H -1.4252986 0.9475106 1.5128332
H -0.81734055 0.98885334 -1.9674278
