10

O -0.075524464 1.9464198 0.7439149
C 0.5732035 -0.19596486 -0.6453045
C 0.36341524 0.7264074 0.4716292
C 0.9078516 -0.4106604 0.8089715
N -0.51901037 -0.94697016 -1.2613
N -1.6145177 -0.7205641 -0.72653973
H 1.3468399 -1.1038564 1.5035952
H -2.300652 -1.3088783 -1.2157811
H -0.049699057 2.0734649 1.7040261
H 1.3680931 -0.05939772 -1.3832116
