10

O -0.9905273 -1.7971128 0.6123303
C -0.52322346 -0.5964038 0.44428703
C -0.914858 0.64749694 0.29202968
C 0.12428604 0.84824026 -0.7088335
N 1.8499858 -0.39467388 0.009939268
N 1.4643981 0.6940989 -0.48276475
H -0.13052404 1.3311926 -1.6523314
H 2.8051066 -0.24644485 0.36248466
H -1.9602684 -1.8071984 0.5555006
H -1.7243752 1.3208052 0.56735796
