11

O -1.5026863 -1.0463535 0.38075888
C -0.16518867 -0.7733039 0.067398064
C 0.027996803 0.23535383 -1.0916245
N 0.7600734 1.0799935 -0.14638504
C 0.5054485 0.30280167 0.94783956
O 0.6803007 0.44225797 2.132209
H -1.5613787 -1.1277483 1.340949
H 0.43684718 -1.6848114 -0.042437043
H 0.6281648 -0.1099442 -1.9369761
H -0.91987544 0.6578931 -1.4319036
H 1.1102976 2.0238614 -0.21982843
