9

O 1.24529240 1.10229194 0.42636186
C 0.90920801 0.02280011 0.83310751
N -0.93866978 -0.09107411 -0.79832218
C -0.26229830 -0.75459461 0.26454468
C -0.77606901 0.96819826 -1.37238051
O -0.76871157 1.93111738 -2.03193750
H 0.11003842 -1.73195967 -0.07138782
H -0.95985258 -0.96566244 1.08692493
H 1.44106265 -0.48111698 1.66308889
