9

O -1.607794 2.3994522 -0.32638848
C -0.0010681816 -0.7881457 -0.29499584
N -1.0103501 0.13138063 -0.6990319
C -1.2404888 1.2981006 -0.4463649
C 1.0068011 -0.21125738 0.68041825
O 0.9660974 0.921326 1.0795366
H -0.45638055 -1.6725433 0.1718793
H 1.7946733 -0.9179526 1.0052415
H 0.5485098 -1.1603605 -1.1702946
