12

O 1.0868683 0.97539127 -0.15980023
C -0.26594403 0.55872756 -0.25406337
C -0.5796168 -0.5682722 -1.1994085
O 0.20571408 -0.8175118 1.6596025
C -0.69546205 0.14032106 1.160578
O 0.5517856 -0.89609385 -1.7986096
H -0.9064257 1.3978091 -0.57395685
H 1.5693326 0.5386479 -0.87600666
H 1.0853058 -0.43594125 1.5289315
H 0.36904487 -1.6172643 -2.4142685
H -1.6885364 -0.31291774 1.1307781
H -0.7320664 1.0371044 1.7962235
