12

O 0.42973743 -1.36065793 1.19534935
C -0.68184924 -0.50921284 1.06117041
C -0.39510163 0.53919333 -0.02482234
O 0.82450625 1.16944561 0.33285637
C -0.45827605 -0.13656835 -1.36704126
O 0.70419511 0.07255875 -1.95992156
H -1.54174839 -1.11831317 0.77467370
H 1.19237505 -0.77397102 1.29798907
H -0.91246730 0.01289384 2.00129028
H 1.37899260 1.18619087 -0.46007030
H 0.68099594 -0.35143944 -2.82721863
H -1.22135976 1.26988041 -0.02425512
