11

N -0.069323234 -1.638383 0.13390903
C 0.2049728 -0.57465994 0.9337669
O 0.79225254 -0.62820876 1.9949647
C -0.24841864 0.74454606 0.35816756
C 0.25492677 1.1942304 -0.943021
O -1.0673109 0.693258 -0.8026058
H -0.7262156 -1.5253047 -0.62225103
H 0.12610681 -2.5623524 0.4908218
H -0.53185797 1.485669 1.1033177
H 0.33043435 2.2611725 -1.1469991
H 0.93443316 0.55003273 -1.5000712
