11

N -1.01042583 0.82430239 1.72131367
C 0.86092028 -0.36656325 0.63746347
O 0.84903056 -1.01447444 -0.62071360
C -0.48324449 0.32713990 0.69243629
C -0.00290975 -0.25803072 -1.42657962
O -0.99052866 0.31421816 -0.56948650
H -0.49412278 -0.91190987 -2.14618898
H 0.97235064 -1.10715502 1.43120182
H -1.90362972 1.26059851 1.50637522
H 1.66828617 0.37576132 0.70807121
H 0.53427366 0.55611291 -1.93389343
