11

N -0.5264065 1.8999093 0.88124716
C -0.28688943 0.779582 0.36049992
O 0.540307 -1.3535544 0.1060915
C -0.30731994 -1.0435512 -0.9582656
C 0.8901908 -0.11296778 0.6904424
O -1.0119948 0.14473231 -0.5992612
H 1.0207411 -0.2374652 1.7667186
H 1.8086851 0.30161193 0.25185058
H -1.023836 -1.8523607 -1.0965325
H -1.3588011 2.3249042 0.48016787
H 0.25532398 -0.8508404 -1.8829588
