10

N 0.64897984 -0.47057908 1.87948317
C -1.00122628 -0.42547036 0.03089834
C 0.31527181 -0.14167786 0.72056021
C 0.46436362 0.59743374 -1.41357313
C -0.78940485 -0.27398844 -1.41557959
O 0.87291816 1.26609181 -2.31609521
O 1.10799026 0.53820801 -0.18531664
H -1.51046592 -1.33462821 0.36240979
H -1.70183649 0.41167982 0.23115752
H 1.59340983 -0.16706934 2.10605555
