11

C -0.5367978 0.7480842 -1.6550777
N 0.3328778 0.44392458 0.5243587
C -0.20532897 -0.90825313 0.86027306
C 0.65855765 0.7541635 -0.9101261
N -1.5539305 0.7979141 -2.2265804
H -0.40945366 -0.98895514 1.9321347
H 0.54357487 -1.643197 0.5605594
H -1.11588 -1.0509692 0.275575
H 1.1846474 0.61633176 1.0581963
H 1.4341953 0.0754593 -1.2504276
H -0.33246174 1.155497 0.83111435
