10

N -1.0840216 -0.3118147 0.75781095
C -0.47309017 -1.3718454 1.188024
C -0.11174385 0.19434093 -0.07850269
O 0.77378154 -1.5726303 0.7037206
C 1.0269645 -0.5081223 -0.15974046
N 0.045728866 1.3372216 -0.949276
H -0.55848587 1.3618793 -1.7683603
H 0.058796506 2.247448 -0.49244213
H 1.1719667 0.7295564 -1.0885749
H -0.84989655 -2.1060338 1.8873408
