10

N -0.5665532 1.1648444 -1.2883624
C -0.15359148 0.24930336 -0.32661432
C 0.68638813 -0.8121115 -0.3947454
O 0.6895067 -1.4134132 0.84653723
C -0.1493838 -0.6750584 1.575535
N -0.681061 0.3239741 0.953961
H 0.14641376 1.4187645 -1.956994
H -0.97401094 1.9857459 -0.86142105
H 1.303606 -1.2670379 -1.1521757
H -0.30131418 -0.9750112 2.6042795
