10

O 2.3642168 -0.394081 0.27132064
C 1.1728961 -0.19503315 0.13381138
N 0.33266547 0.5728686 0.9239674
C -0.97417736 0.55030566 0.43669236
C -0.9785519 -0.22521181 -0.6618508
N 0.32590646 -0.68017834 -0.849016
H 0.66358477 1.061129 1.738056
H -1.7757509 1.0881958 0.91694254
H -1.7833545 -0.49473777 -1.3269818
H 0.65256524 -1.2832568 -1.5829415
