10

C -0.79101717 0.70913034 -1.38245876
O 0.34608021 -0.42587998 0.55205588
C 0.18110790 0.91089472 0.83761081
O -0.41920240 1.43893784 -0.18666694
C 0.95838076 -1.20810567 1.50550125
O 1.35101955 -0.84128106 2.56368109
H -1.50196080 -0.08015067 -1.12950135
H -1.24607809 1.45361672 -2.03080725
H 0.10072856 0.27889846 -1.84187320
H 1.02094171 -2.23606077 1.11245840
