11

O -1.79902316 -1.51883916 0.67773655
C -0.48404154 0.43717043 1.11187260
C 0.52967315 1.19996397 0.62844449
C 0.83746245 -0.09214154 -1.19384515
N -0.16509541 -0.91950196 -0.79637888
C -0.91722241 -0.73892240 0.38504601
N 1.21570007 0.95077799 -0.53734756
H 0.86026666 2.08432467 1.16950602
H 1.32994457 -0.35339065 -2.12739194
H -0.41604674 -1.72439150 -1.35326143
H -0.99161755 0.67495012 2.03561942
