11

O -1.2042459 -0.8806452 -0.64521146
C 0.41788664 -0.3720504 1.2343605
C -0.81199616 1.2061266 -0.6330521
C -0.09271105 -0.09246784 -1.086301
N 0.9430302 -0.31333733 -0.03741945
C -1.2835206 0.24701142 0.2084296
N -0.811202 -0.0070708958 1.4883378
H 0.27887285 -0.31583408 -2.0902104
H 1.7792314 -0.84487295 -0.23409013
H -0.2929606 2.074451 -0.23883824
H 1.0776153 -0.7013101 2.033995
