11

O -0.28169656 1.6415946 2.1658583
C -0.21505384 0.86846817 1.2338467
C 0.7535223 1.0188483 0.13544747
C 0.78135926 0.13520889 -0.87317216
N -0.103894725 -0.9193159 -0.87915915
C -0.9939633 -1.0429403 0.15302774
N -1.0880527 -0.24711755 1.1507654
H 1.4355409 1.8595275 0.16652107
H 1.4683139 0.18717147 -1.7115005
H -0.09957014 -1.5975442 -1.62111
H -1.656505 -1.903901 0.079475276
