11

O -0.28005373 1.6405101 2.166371
C -0.21238834 0.86777437 1.2323022
C 0.75263935 1.0197237 0.13734582
C 0.77961063 0.13620973 -0.870883
N -0.1036715 -0.920194 -0.87784237
C -0.9931503 -1.0435755 0.1523312
N -1.0864141 -0.24608178 1.1519399
H 1.4347588 1.8591053 0.16631362
H 1.4637619 0.18437855 -1.7111384
H -0.09791325 -1.5950236 -1.6247404
H -1.6571795 -1.9028269 0.078000054
