12

N 1.7407646 -1.3643862 0.7969836
C -0.6084344 0.5064258 0.12291461
C 0.7780226 0.6990797 -0.56020874
O -0.16176003 0.055730984 1.3880178
C 1.3953767 -0.3280241 0.31343514
N -1.4620333 -0.34421927 -0.6561009
H 1.1925961 1.6868418 -0.34779245
H -1.0220577 -1.226804 -0.883529
H -2.3270645 -0.5268641 -0.161355
H 0.72754955 -1.0844707 1.3909941
H -1.1136829 1.4709246 0.2207715
H 0.8607233 0.45576563 -1.6241307
