12

N -0.74640924 -1.0235864 -1.031716
C -0.23288804 -0.6362679 0.27923602
C 0.5689314 0.6634468 0.085579306
O -0.17094809 1.5733972 -0.6772704
C 0.889417 1.2621108 1.3944947
N 1.1528072 1.6870532 2.4353313
H -0.04274559 -1.5295529 -1.5604149
H -1.5589532 -1.6176554 -0.9498575
H -1.0886166 -0.41608536 0.92931706
H 0.38882023 -1.3927475 0.7740119
H 1.5286573 0.42553318 -0.4024742
H -0.68807226 1.0043541 -1.2762374
