13

N -1.0563405 -1.1243987 0.065436766
C 0.27569306 -0.49069038 -0.49781805
C 0.32107636 -0.6494888 -1.904976
N 0.3097564 0.7962036 1.5330564
C 0.44875753 0.8873229 0.076967135
N 0.37693554 -0.8202592 -3.052843
H -0.056264143 -1.6896999 0.110861346
H -1.2475426 -0.646511 0.9442052
H -1.8335199 -1.1877044 -0.5853981
H 1.132863 0.33551776 1.91165
H 0.26200524 1.7218263 1.9465077
H 1.4084902 1.2942916 -0.27425325
H -0.3419103 1.5735902 -0.27339607
