13

N 0.62245065 -2.90621639 -1.24448082
C -0.36243869 0.51581710 -0.80244758
C 0.51799109 -0.55257315 -0.22229365
N 0.17922899 -0.63358066 1.24676825
C 0.54890981 -1.83249218 -0.79269194
N -0.16929888 1.72992287 0.02106882
H -0.10981811 0.64682027 -1.86270157
H -1.45266842 0.30044065 -0.75613701
H 0.75918096 2.09543612 -0.15664116
H 0.95461623 -1.00141191 1.79194152
H -0.85000766 2.44505074 -0.20650173
H -0.66329585 -1.16436536 1.48935123
H 0.02514987 0.35715217 1.49476527
