11

N -2.7768016 -0.43955937 0.9756366
C 0.19729564 -0.38792375 -0.73404175
C -0.5512807 0.64985085 0.072234385
C 1.3152492 -0.96485966 -0.32163814
C -1.7957628 0.04415201 0.6033681
O 0.16384064 1.1594828 1.1692104
H 1.7534224 -0.7285159 0.6435643
H 0.98300785 1.5375885 0.8243519
H -0.24685504 -0.6318573 -1.6971202
H -0.86764663 1.4628148 -0.59942824
H 1.8255311 -1.701173 -0.9361375
