11

N -0.71275749 -2.14377316 1.93698730
C 1.25966914 0.28807187 -1.04619972
C -0.71402479 -1.18043425 1.29904201
C -0.73520514 0.02488746 0.43622061
C 0.07205598 -0.24860327 -0.81316171
O -0.26184338 1.09811213 1.20991117
H 1.73174710 0.95460772 -0.33041885
H -1.78757604 0.18172524 0.15329684
H -0.25861495 1.87918794 0.64172426
H -0.39666677 -0.92402541 -1.52618164
H 1.80321618 0.07024401 -1.96121997
