10

O 1.7173012 -1.7774376 0.8270822
C 1.1517899 -1.46704 -0.19565175
C 0.196483 -0.34274176 -0.2600381
N -0.39110753 -0.041836616 -1.3915238
O -1.1902891 1.0330156 -1.1223732
C -1.0674064 1.3605422 0.17643923
C -0.20113793 0.5287782 0.79451805
H 1.3163227 -2.0027547 -1.1491098
H -1.6611049 2.203975 0.49976206
H 0.12914911 0.50549954 1.8208953
