10

O 0.7795331 -1.7342408 -1.597668
C -0.17588426 -1.6293938 -0.876787
C -0.42740425 -0.46005043 0.015072205
N -1.6496807 -0.5669402 0.7880724
O -1.8671408 0.3568257 1.534363
C 0.37363854 0.5839764 0.09556066
C 1.1015617 1.6463422 0.24302654
H 1.8920462 1.6807522 0.9896237
H -0.9688758 -2.402044 -0.81226087
H 0.9422062 2.5247731 -0.3790027
