10

O 2.1204896 -1.7836871 -0.3372531
C 1.6217481 -1.0471606 0.47051355
C -0.48361382 -0.3175905 -0.9744956
N -0.062997684 0.4934488 1.1752071
O -1.1841091 1.1028563 0.75202185
C 0.37414145 -0.27376586 0.21152057
C -1.4056323 0.66990894 -0.5598286
H 2.050143 -0.88644207 1.4801719
H -0.6240256 1.1522797 -1.298646
H -2.4061437 0.89015234 -0.9192119
