10

O 1.91734891 -1.41623981 0.69702526
C 1.25379785 -1.33853479 -0.30154700
C 0.12335006 -0.38191007 -0.48319504
N -0.52278754 -0.47989109 -1.77772985
O -1.45506342 0.26902532 -1.94376564
C -0.70217891 1.36232818 1.27826027
C -0.25706008 0.48363599 0.43564015
H 1.42770037 -1.97773607 -1.19102279
H -0.30214249 2.37407347 1.29551521
H -1.48296470 1.10524873 1.99081962
