11

N 0.47757781 -1.46109362 -0.42526555
C 0.74588701 -0.45867882 -1.28594056
C 0.29158083 0.69873198 -0.69674872
C -0.24458330 0.26392241 0.54297545
N -0.77365202 1.05966959 1.55544132
N -0.13645198 -1.04633128 0.69715077
H 0.34412736 1.70495608 -1.08137978
H 1.23456885 -0.63443028 -2.23322747
H -1.35948305 1.80848235 1.21473903
H -1.26426655 0.50396241 2.24371886
H 0.68469493 -2.43919054 -0.53146348
