11

N 1.42055981 0.44246316 1.16641405
C 0.04942667 0.30586944 0.80083121
C -0.26249607 -0.85774798 -0.15500834
C 2.55419411 0.54109589 1.45401156
C -0.65979257 0.25394396 -1.13227750
O -0.35093567 1.26951767 -0.15522788
H -1.07102514 -1.50825160 0.18124760
H -1.71527569 0.28428410 -1.41894913
H -0.54105501 0.36469979 1.72091841
H -0.03312863 0.35344651 -2.02446635
H 0.60952790 -1.44932056 -0.43749351
