11

N 1.3631384 -0.66463166 2.5977213
C 0.6588107 -0.67385644 1.6828518
C -0.24271284 -0.6550104 0.51565534
C -0.5301317 0.741905 -0.07532968
C 0.242293 0.22075145 -1.2929268
O 0.40486535 -1.0774398 -0.6849721
H -1.120207 -1.2683097 0.74798703
H -1.5902352 0.9358859 -0.24414597
H -0.078274265 1.5782003 0.4605755
H -0.31850022 0.16188905 -2.230052
H 1.2109535 0.70061666 -1.4773643
