9

O -1.4620379 -0.0014736684 0.33896124
C -0.4686887 0.7341895 0.9228308
C 0.009232117 -0.9721127 -1.0826678
N 1.1221305 -0.2989823 -0.5879575
C 0.87776494 0.5164705 0.37187508
N -1.208934 -0.8834541 -0.6994173
O -0.740051 1.4861215 1.8183763
H 1.690836 1.08508 0.816263
H 0.17974806 -1.6658388 -1.898264
