9

O -1.36169465 0.58406793 -0.23896432
C -0.25941568 0.67566051 -1.04235616
C -0.22640621 -0.65291797 1.28050624
N -1.33904922 -0.10540076 0.96282650
C 0.94263129 -0.00421760 -0.53566098
N 0.97374718 -0.64340730 0.57628538
O -0.33101894 1.28325670 -2.07518762
H -0.23631762 -1.18884603 2.22295604
H 1.83752419 0.05180444 -1.15040496
