9

O -2.5738137 0.678948 0.29530197
C -1.6325896 0.09839255 0.7630824
C -0.29854137 0.042266086 0.09657847
N 0.76387894 -0.5496606 0.54520077
C 1.662961 -0.2783311 -0.45617682
N 1.182849 0.4235919 -1.4398123
O -0.13182063 0.6436287 -1.0788866
H -1.6638408 -0.44383752 1.7240067
H 2.6909175 -0.6149981 -0.44929448
