9

O -0.048211705 -1.994407 2.2206585
C 0.28018728 1.0590466 -1.2432972
C -0.19299693 -1.4180192 1.199984
N 0.49318033 2.0268574 -0.21428704
C -0.36591488 -0.56677693 0.23198685
N -0.13317531 -0.11993876 -0.98262244
O 0.41777226 1.4910398 0.8768126
H 0.39888182 1.4031312 -2.266106
H -0.84972286 -1.8809329 0.17687105
