10

N 0.13956796 1.7837677 0.19641703
C 1.4145925 -0.39324406 0.5144925
O -1.3440506 -0.2276884 1.2940106
C 0.8587445 0.8398603 0.37700316
C -0.7585353 0.008025258 0.2923597
N -1.037616 -0.26036522 -1.0166187
H 1.5486332 -0.7956547 1.5117351
H -0.69565684 0.42266837 -1.6768882
H -2.007595 -0.51320225 -1.1496915
H 1.8819158 -0.8641669 -0.34281978
