10

N 0.12129489 0.27817000 -0.56616537
C -0.83581944 -0.47391937 -0.72740257
O 0.44460232 -0.31577364 1.69155964
C 0.74980580 0.35350431 0.73488062
C -1.85463898 -1.24092869 -0.99723392
N 1.72861405 1.28811885 0.69824995
H -2.86332067 -0.87380086 -0.85116537
H -1.69182583 -2.25409311 -1.34453320
H 1.91875585 1.77898708 -0.16015074
H 2.28253190 1.45973550 1.52196088
