10

N 0.71028835 0.6334715 2.056481
C -0.72160834 -0.13422269 -0.95581055
O 1.6795322 -0.48549268 0.31972918
C -1.0227216 -0.5828438 -2.1420548
C 0.7445488 0.0950846 0.8147574
N -0.5266364 0.32896996 0.16452074
H -0.11542849 1.1182272 2.3681874
H -0.79966867 0.013581514 -3.0184972
H -1.4734306 -1.5616535 -2.253188
H 1.5251248 0.5748778 2.645875
