14

C 1.364526 -1.367744 -1.0743856
N 0.24323024 -0.89357954 -0.3959796
C 0.13201681 0.40431222 0.056289434
O 0.977658 1.243933 -0.05157184
N -1.1896183 0.6923056 0.69801676
C -1.5174085 2.0172896 1.4164379
N 1.3740394 -2.5641403 -1.4825745
H -0.77024716 2.0300937 2.226521
H -1.4250046 -0.06840819 1.3323433
H -0.5098397 -1.5621216 -0.28031757
H 2.2532022 -2.7777157 -1.9402609
H -1.9095536 0.6839668 -0.01730594
H -1.1645893 2.772357 0.6988557
H 2.141588 -0.61054814 -1.1860682
