14

C 1.5799525 0.9959315 -0.945825
N 0.5410863 0.41740087 -0.23485026
C -1.6479818 -0.5276107 1.3071429
O 0.4620474 -1.5103059 -1.4653881
N -0.9886514 -1.2601949 0.24420308
C 0.034103196 -0.8310984 -0.55189437
N 2.0134249 2.1411314 -0.6205082
H -2.2249956 0.3334738 0.9489689
H -0.9253351 -0.18873131 2.056052
H -1.398669 -2.1179118 -0.08371687
H -2.3385015 -1.2082316 1.811665
H 0.18527785 0.9762027 0.5273581
H 2.7748744 2.4184647 -1.2317929
H 1.9333674 0.36147994 -1.7614145
