9

N 1.0106212 0.436249 -1.3096122
C 0.21516572 -0.11936191 -0.42742312
C -0.30469072 0.41536626 0.80278313
N -1.7568634 -1.0446877 2.1034164
N -1.0867348 -0.37329972 1.5010955
O -0.05607365 -1.3021864 -0.85479397
H 1.3721635 1.3790175 -1.2674077
H 0.72310275 -0.7910446 -1.7532212
H -0.11669072 1.3999476 1.2051629
