9

N 0.7871942 1.628536 0.17119858
C 0.40111065 -0.739786 -0.30363277
C 0.043257497 0.60262793 0.13342996
N -0.48966676 -1.6934333 -0.27043033
N -1.2468226 -2.5234675 -0.24536732
O -1.2479491 0.68674713 0.5310798
H 1.731846 1.4333124 -0.14997321
H -1.3615426 1.6130978 0.79434735
H 1.3825727 -1.0076343 -0.66065204
