9

N -0.8879802 -0.57589436 -1.2246476
C 0.2331545 -0.14785077 -0.55184585
C -0.053631898 0.36828342 0.7880031
N 0.96204346 0.8028117 1.4841849
N 1.8394351 1.1773549 2.0869594
O 1.3469807 -0.16088182 -1.0419985
H -0.7035485 -1.0912749 -2.072708
H -1.706173 -0.84646493 -0.7047348
H -1.03028 0.47391653 1.2367874
