9

N 1.30861391 0.27373505 -2.48902768
C -0.24354748 -0.41725366 -0.75296081
C -0.10353885 0.09784700 0.60211364
N 0.59458485 -0.04233699 -1.68086256
N -0.83303566 -0.15828974 1.60689423
O 0.94809177 0.94122014 0.72544534
H -1.01793431 -1.10574260 -1.05092263
H -1.58812345 -0.80114624 1.38282158
H 0.93488938 1.21196681 1.65649893
