10

O 1.6366478 -0.62973446 0.72780645
C -0.18763284 -0.18458782 -0.94411737
C 0.3727703 -0.13893306 0.45672837
O -1.3218344 0.6442305 -1.0763466
C -0.2793601 0.4514834 1.4419253
O -0.83312696 0.99331546 2.3135965
H 0.61380756 0.0822399 -1.6479423
H -0.520739 -1.1984327 -1.1916084
H 1.5578368 -1.5792686 0.89277494
H -1.0383692 1.5596875 -0.97281665
