10

O 1.3180863 -0.91376305 0.4891703
C 0.40716103 0.13592426 0.36390102
C 0.0063225934 0.4448565 -1.079192
O -1.3899547 0.18277828 -0.7594226
C -1.081884 -0.20602882 0.50788957
O -1.8051289 -0.65176016 1.3420143
H 1.325147 -1.1996889 1.4118599
H 0.68857807 1.0208123 0.9510628
H 0.3877403 -0.28136313 -1.7979163
H 0.14393248 1.468233 -1.429367
