10

O 1.27775606 -0.40970437 1.34326674
C 0.16679490 -0.19503763 0.54863527
C 0.31911237 0.12977160 -0.91758544
O -0.88107959 0.62994669 -1.46549210
C -1.01566927 -0.19115787 1.13705865
O -2.05084341 -0.16435977 1.67347897
H 1.52691605 -1.34039023 1.26090177
H 0.56104396 -0.77369951 -1.48793798
H 1.15910954 0.82972814 -1.03307958
H -1.06314045 1.48490324 -1.05924631
