12

N 0.9893172 -0.9554159 -1.6511462
C 0.3970639 -1.7243564 -0.49224153
N 0.17957626 0.8395534 -0.105905995
C -0.58036035 0.985644 1.062946
O -0.6576139 2.2829278 1.4421766
C 0.34831828 -0.39585158 -0.42824948
N -1.1376063 0.034385514 1.6918834
H -0.13019764 2.7960625 0.81363916
H 1.9981358 -0.9162658 -1.7522861
H -0.26549512 -2.5687556 -0.55556095
H -1.6379675 0.40343726 2.4961622
H 0.4968293 -0.78136474 -2.521417
