9

C 0.77634704 0.118481934 -1.6540759
C 0.15033491 0.0237505 -0.33463407
C -0.35083705 -0.043055754 0.75944036
C -0.9731426 -0.14921065 2.0673096
O -0.6602331 0.5186491 3.0272055
H 0.8132152 1.1603227 -1.9866773
H 0.22179669 -0.46286437 -2.396789
H 1.8015338 -0.26079535 -1.6142294
H -1.779015 -0.905278 2.1324503
