9

C 0.24280074 1.4643023 0.92641336
C -0.06659132 -0.5406262 -0.44307914
C -0.4286213 -1.7839954 -0.549117
C 0.3040306 0.7179467 -0.3517982
O -0.13111869 1.0074837 1.981866
H 0.2840093 -2.5875432 -0.38592815
H -1.4548862 -2.046036 -0.7948164
H 0.6698032 1.2488433 -1.228362
H 0.5805737 2.5196252 0.8448214
