9

C 1.13321753 -0.42720313 -1.18500173
C 0.30195320 0.07449806 -0.28981699
C -0.49977410 0.55897232 0.57005397
C -1.32803082 1.05832227 1.46021062
O 1.27832632 -1.73349293 -1.49974595
H -1.37305675 2.12550275 1.64846665
H 0.67536403 -2.26034291 -0.96140813
H 1.79854888 0.19393916 -1.77306906
H -1.98654843 0.40980449 2.03031026
