10

O -0.44170445 -0.7312543 -0.5920946
C -0.62806857 -0.54032844 0.851464
C 1.2623647 -0.53444475 -0.80182403
C 0.2683863 0.5702827 -0.7298332
O 0.1150724 1.7904997 1.4592098
C -0.01737195 0.8554363 0.7292577
H -0.06979663 -1.2865996 1.4155902
H -1.6968659 -0.54746246 1.0845946
H -0.07723406 1.215816 -1.5397058
H 1.2852181 -0.7919449 -1.876659
