10

O 0.26743454 -1.2621462 1.8931055
C 0.84003985 0.68228984 0.46224847
C 0.11539862 -0.26881644 -1.25842
C 0.049574587 -0.5424743 0.9612
O -0.6532423 0.9089702 -0.54408234
C -0.8988349 -0.4740989 -0.17744502
H -1.9213725 -0.82050246 -0.27030167
H -0.33659717 -0.38815737 -2.25643
H 0.65644175 1.6149031 1.0054799
H 1.8811576 0.5500325 0.18464513
