10

O -0.14642073 0.050287757 1.357648
C -0.6239814 -1.0241684 0.48623025
O -0.9565878 0.9229672 -0.75908893
C -0.2254369 -0.17809725 -0.7596551
C 1.1950521 -0.047569644 -0.8492586
C 0.34545225 0.7804369 0.32270402
H -0.03616541 -1.9286233 0.63219184
H 0.7286016 1.784453 0.46268576
H 1.4160935 0.8013827 -1.5143241
H -1.6966072 -1.1610692 0.6208669
