10

O 0.03571384 -2.548685 0.51991063
C -0.23765975 -1.9927213 -0.5090415
O -0.23371531 -0.6668423 -0.69980526
C 0.13348678 0.09601745 0.46236178
C 0.10213234 1.5120666 0.11025502
C 0.089218974 2.686486 -0.13943204
H -0.53153616 -2.4904206 -1.4442089
H -0.5668801 -0.12202447 1.2756243
H 1.1336554 -0.20465332 0.7918721
H 0.075583935 3.7307773 -0.36753607
