10

O -1.15189227 -0.55302754 -0.36679854
C 0.00661846 -0.76148722 0.50961949
C -0.80492606 0.79654738 -0.49133261
O 0.90153930 -1.67533106 0.03320852
C 0.34988665 0.72892929 0.37052992
O 0.49120418 0.91206774 -1.05069933
H 1.24133326 -1.31806003 -0.80095413
H -0.33032555 -1.08415876 1.49564359
H -1.55810837 1.53613664 -0.73530520
H 0.85467057 1.41838356 1.03608853
