11

O 0.0068525793 1.0350511 -1.2276024
C -0.06934131 -0.01989214 0.64432144
C 0.5282651 -0.6337169 -0.4839388
O -0.24522452 -0.54423684 1.8637953
C -0.69101506 1.1816574 -0.047852762
N 0.9488148 -1.6236085 -1.0683582
H -1.7832472 1.0120083 -0.12877074
H -0.5297235 2.1251872 0.49847698
H 1.4027705 -1.5184319 -1.96444
H -0.806291 -1.3304065 1.7695789
H 1.2381396 0.31638864 0.14478996
