9

N 0.25023550 -0.02287604 -1.77432557
C 0.72838783 -0.08891299 -0.53281472
N -0.26132303 0.03104595 0.39556475
C 0.04043642 -0.01314604 1.75261706
O -0.79101957 0.08464622 2.61818265
H 0.89706080 -0.10705264 -2.54071143
H -0.72672104 0.10731725 -2.02914512
H 1.11899607 -0.14652051 1.91907390
H -1.25605273 0.15549881 0.19155802
