11

C -1.9419223 0.4062848 -0.29855552
N -1.0188595 -0.6146531 -0.7634728
C 1.956226 0.2672363 0.86440665
O 2.756402 -0.45065904 0.1519066
C 0.15789677 -0.6616242 -0.34670496
O 0.6597549 0.24587305 0.6175692
H -2.7885673 -0.09755168 0.1762113
H -1.5086117 1.1274688 0.40292054
H -2.3214674 0.9404746 -1.1741635
H 0.8740461 -1.4071975 -0.67524046
H 3.1751022 0.24434784 1.0451231
