10

O -0.10565224 1.9778813 0.26291126
C -0.004724129 0.66336304 0.02980742
N 0.56018496 0.008019964 -0.9824066
C -0.24665566 -1.5172814 0.30332878
C 0.44757488 -1.4225762 -0.8789195
N -0.51575637 -0.23908855 0.85191464
H 0.43665478 2.46308 -0.37044275
H 1.0196697 0.45715785 -1.7587228
H -0.59801906 -2.3880987 0.8343023
H -0.99327666 -0.0024570301 1.7082273
