10

O 0.68495305 1.87599326 -0.06154354
C -0.19849280 -1.59669582 -0.63852094
N 0.45052450 -0.35721426 -0.97386852
C -0.79199731 -1.23615825 0.54739692
C 0.25394428 0.60854344 -0.07841203
N -0.50792196 0.11076274 0.88242475
H 0.99304149 -0.24404951 -1.81552579
H -1.41488272 -1.81074644 1.21491026
H -0.79661840 0.63910095 1.69162471
H 1.32745009 2.01046364 -0.76848572
