10

O -1.0527917 1.0962605 -1.4227525
C -0.31507957 0.35329613 -0.59282315
N -0.2712476 0.6198607 0.7123447
C 0.52810544 -0.35453242 1.3212341
C 1.075449 -1.1728728 0.36532336
N 0.4999026 -0.64423907 -0.9118483
H 0.6516984 -0.35479638 2.3953416
H -0.6826641 1.4373541 1.1365621
H -0.86793303 0.7897571 -2.3217561
H 0.4345605 -1.7700882 -0.68162614
