11

O -1.49374244 -1.37994657 -1.88554044
C 0.98114272 0.18649657 0.70576502
N 1.50758115 -0.40844284 -0.44287740
C -0.30734530 0.45181745 0.94159638
C -1.44752113 -0.64399161 -0.98214617
C -1.43232887 0.21027345 0.02110013
H 1.71800710 0.39259971 1.47843843
H -0.57765811 0.89295356 1.89614667
H 2.46856206 -0.16144158 -0.62297826
H -2.37135504 0.73911232 0.17295318
H 0.95465805 -0.27943046 -1.28245790
