11

O 1.2536198 -0.65430564 -2.1073012
C 0.6264586 -0.34642875 -1.1153303
N 1.1427639 0.033671618 0.10019303
C 0.12862262 0.33709845 1.0824591
C -1.1397295 0.09343586 0.30534932
C -0.86029524 -0.29348 -0.93672675
H 2.1340616 0.08244638 0.26262483
H 0.190116 1.376326 1.4342982
H 0.19212432 -0.31517673 1.9619281
H -2.1203876 0.23025584 0.7475691
H -1.5473543 -0.54384303 -1.7350638
