10

N 0.82497907 -1.5090592 -0.45461842
C -0.20477833 -0.64932126 -0.36253825
O -1.3336685 -0.81923896 -0.7774619
C 0.20356455 0.64832574 0.36329192
O 1.3316464 0.81488353 0.78497577
N -0.82295924 1.511035 0.44969717
H 1.7130618 -1.235106 -0.060986772
H 0.6997311 -2.3981485 -0.9084634
H -0.69965345 2.399099 0.9068128
H -1.7119235 1.2375307 0.059291165
