11

N 1.44547185 -1.32075437 -0.59956917
C -0.33606876 0.40755053 -0.77372250
C 0.55204784 -0.42238948 0.02689956
N 0.54156512 -0.21325866 2.46174427
C -1.96829539 2.04586331 0.18597071
N 0.53062718 -0.30742710 1.32612713
N -1.23192746 1.17495092 -0.29166935
H 1.25970559 -2.29386383 -0.39212062
H -0.21373875 0.34213140 -1.84860299
H 2.41942939 -1.10133152 -0.43395141
H -2.99881693 1.68852876 0.33889436
