11

N 0.9921103 -0.84612274 -1.5287498
C 0.24956912 -0.22132769 -0.5560637
C 0.5891115 -0.27560928 0.81431365
N -0.11926144 0.38098168 1.7030479
C -1.1521201 1.0864846 1.2082604
N -1.5070654 1.1599386 -0.06292006
N -0.7985306 0.4855538 -0.9607944
H 1.5260309 -1.6585045 -1.2656342
H 0.5405544 -0.9051335 -2.429753
H 1.437879 -0.8564301 1.1668255
H -1.758278 1.6501691 1.9114677
