10

O 1.8306392 -0.15775962 0.7770058
C 1.1362348 -0.80941325 0.032476295
C -0.11856758 -0.26829848 -0.5610522
C -1.0603198 0.38553 0.39445132
N -0.2938977 1.1806457 -0.5382458
H 1.4015671 -1.8494186 -0.24631521
H -0.50815946 -0.78323185 -1.4353273
H -2.1267753 0.32617626 0.19475818
H -0.771442 0.39099616 1.4441701
H 0.51072055 1.5847738 -0.061921395
