12

N 0.75205515 0.51214580 -0.17730287
C -0.30612746 1.24809881 -0.58965523
C -1.11842170 -0.57966666 0.12031071
N -1.44794069 0.64806055 -0.44419951
C 0.22993680 -0.69103684 0.28789446
O -0.09653133 2.47776843 -1.08847979
N 1.09538375 -1.69526210 0.74880893
H 0.67249774 -2.60909540 0.63582127
H -0.97037509 2.82259268 -1.31516371
H -1.88010533 -1.30194352 0.37577795
H 1.34233167 -1.57251330 1.72448971
H 1.72729615 0.74085153 -0.27830205
