11

N 0.32501903 2.9277387 0.45424485
C -0.20902945 1.909307 0.35316044
C -0.85607016 0.6003633 0.20260051
C 0.009304886 -0.35663733 -0.59826
C 0.9172771 -1.2902836 0.0671814
O -0.33062595 -1.7209957 -0.4652162
H -1.8246411 0.7368357 -0.29084855
H -1.0504408 0.17280315 1.192804
H 0.2380418 -0.037986796 -1.615043
H 1.8004981 -1.6527508 -0.45550725
H 0.98066646 -1.2883943 1.1548839
