11

N 1.8655432 -0.107323974 -0.4098573
C 0.84835106 0.5534653 0.3401222
C -1.48795 -0.21988028 -0.4626362
C -0.37527052 -0.32765725 0.47840127
C 2.6650786 -0.6976154 -1.0302576
O -1.557088 0.35232934 0.83873016
H 0.57352185 1.4874125 -0.16205314
H -0.21178225 -1.274864 0.9939648
H -1.4317911 0.49900252 -1.2792233
H -2.1383975 -1.0747683 -0.6332729
H 1.2497845 0.80989933 1.3260821
