12

O 0.8705771 1.9660516 -1.2800847
N 1.0096314 1.4126784 -0.0054275743
C 0.31025618 0.3644428 0.10454805
C 0.13528256 -0.60748047 1.2418249
N -0.5598345 -1.5141503 0.29485628
C -0.58661634 -0.47705922 -0.7713478
H 1.4697621 2.7202575 -1.2382389
H -0.4921202 -0.21673396 2.0533633
H 1.0514197 -1.0262303 1.6684074
H -1.4806325 -1.7960376 0.60868734
H -1.5674547 -0.01955091 -0.95341665
H -0.16027074 -0.8061874 -1.7231717
