11

C -1.135638 1.1453918 0.60187507
C -0.22077452 0.03006403 0.20750202
C 0.7634026 -0.014523558 -0.7461305
N 1.2483159 -1.2773092 -0.6542447
N 0.61470824 -1.9765958 0.28983775
N -0.27116683 -1.1948067 0.8132947
H -2.1806703 0.8598396 0.45494518
H -0.93541354 2.0405476 0.006250233
H -1.0064491 1.3976711 1.6581981
H 1.1417365 0.7114681 -1.4483808
H 1.9819487 -1.7217472 -1.183147
