9

N -0.9516795 -1.4876829 0.29796985
C -0.84483606 -0.1600422 0.31581214
N 0.38119194 0.24415211 -0.13494262
C 0.6981548 1.5955822 -0.20090218
O 1.761396 2.0063462 -0.58968043
H -0.22728197 -2.139983 0.002161499
H 1.1357776 -0.37501758 -0.44251418
H -1.8141327 -1.9040209 0.6079611
H -0.13858992 2.220666 0.14413482
