9

N -0.414648 0.35362196 0.088144556
C 0.4239558 -0.5974466 -0.42054227
N -0.23454058 -1.7702966 -0.6113389
C 0.03734249 1.617509 0.43215117
O -0.6799706 2.489041 0.8543014
H 1.1252953 1.7223499 0.27469015
H -1.4141791 0.1758588 0.1865031
H 0.7370874 -1.5855763 0.27403626
H 0.4196573 -2.405061 -1.0779454
