9

N 0.20965791 0.20489419 -0.37039028
C 0.10648431 1.44850973 -0.98190886
N -0.31275558 -1.33356401 1.15389398
C -0.55615403 -0.09744222 0.72131587
O 0.75593197 1.76688232 -1.94482842
H -0.63339559 2.08457004 -0.47404369
H 0.89277342 -0.41830400 -0.80896536
H -0.82032820 -1.67029327 1.95529329
H 0.35778563 -1.98525253 0.74963374
