13

C 0.15940727 0.88356966 0.18536778
C 0.63043386 0.18464802 -1.0675546
O -1.4489154 -0.91366434 -0.26755238
C -0.12430887 -0.58183074 -0.024981966
O -0.9128222 1.7727312 -0.0052777124
N 0.52806306 -1.6212919 0.6925776
H 1.6977798 0.03296154 -1.1925793
H 0.907505 1.1844989 0.9187324
H -1.3790498 1.8584294 0.8369595
H 1.5347242 -1.5239674 0.6615677
H 0.22936165 -1.6363586 1.6648724
H 0.08929703 0.43507063 -1.9752891
H -1.9114755 -0.074796386 -0.42684257
