13

C 0.4454273 -0.12307349 0.8175724
C -0.30409637 0.42302668 -1.1652402
O 0.6908906 1.1168234 1.2014424
C -0.73333657 -0.45981452 0.011407458
O -1.4872991 1.0703528 -1.6830294
N 1.3184142 -1.0351572 1.217026
H -1.6277282 -0.03567616 0.48384148
H 0.13804904 -0.2033521 -1.945479
H -1.229228 1.9733696 -1.8881315
H 1.1388518 -2.0134544 1.0502517
H -0.8709437 -1.5440629 -0.12482395
H 0.32741633 1.5835873 0.39473864
H 2.1935828 -0.7525688 1.630424
