10

N 0.6012023 -0.8102106 1.5059431
C 0.014041479 0.16904923 0.74158293
O -0.3999634 1.2188224 1.1832881
N -0.10046409 -0.17728283 -0.605876
C -0.63930184 0.6737853 -1.5592092
O -0.76876247 0.34580475 -2.7132223
H 0.8273338 -0.51443845 2.4438903
H 1.2521954 -1.4513593 1.0800098
H 0.13453163 -1.1044855 -0.93251693
H -0.92081267 1.6503148 -1.1438897
