11

N 0.8906676 -0.16536625 0.6497799
C 1.0530185 -0.8940905 -0.4382358
O -0.76522285 1.6745926 0.97048193
C -0.53763264 0.40385994 0.7640498
C -0.9406736 0.43170634 -0.6449737
O 0.1428637 -0.9758265 -1.3054168
H -1.0517625 -0.33500913 1.412804
H -0.42505324 1.1776751 -1.2324713
H -1.9585625 0.18020222 -0.93542874
H 1.9962945 -1.4297482 -0.602808
H 1.5960629 -0.06799581 1.3622186
