11

N -0.16871933 -1.50414195 0.56035680
C -0.85548508 -1.10296359 -0.42353544
O 2.00006400 1.31816375 0.90645988
C -0.23375634 1.08359117 0.09566156
C 1.26439376 0.84762376 0.07709818
O -0.93823698 0.19193457 -0.76063746
H -1.45493258 -1.69544486 -1.12018390
H -0.21585191 -2.51522085 0.63985960
H -0.59421102 1.01955417 1.12592628
H -0.43759568 2.08168396 -0.30460378
H 1.63433127 0.27522024 -0.79640216
