11

N -0.33712575 -0.88024575 1.3101232
C -1.2504206 -0.56714135 0.49250877
O -1.0746468 0.3606925 -0.45905563
C 0.19791976 0.99718195 -0.45212698
C 1.3332947 0.032922693 -0.73779595
O 2.4854183 0.31638554 -0.53110915
H 1.0269439 -0.91692173 -1.2188855
H 0.38814378 1.5039104 0.49788082
H -0.6550869 -1.6129788 1.9368813
H 0.15081835 1.7342634 -1.2598673
H -2.2652593 -0.968069 0.4214464
