10

N -0.61760247 -0.65371567 -0.43788028
C 0.36359468 0.35157457 -0.3808371
C 0.5669172 0.5989042 0.95132375
O -0.27089608 -0.28241846 1.6689878
C -0.93203986 -0.9885416 0.78043526
N 0.6435193 0.5582703 -1.6698997
H 1.1491234 1.3920743 -1.9301909
H -0.45090368 -0.48824802 -1.6478475
H -1.6400875 -1.73243 1.1192886
H 1.1883749 1.2445301 1.54662
