10

N 0.55275016 -0.52538900 -0.67824303
C 0.27051134 0.54757513 -1.40234857
C -0.02273027 -0.43119714 0.62718595
O -0.44687238 1.37066392 -0.72127894
C -0.66183600 0.81649865 0.54573664
N 0.17569435 -1.40759479 1.44942621
H 0.56335577 0.76794197 -2.41706990
H -1.24747957 1.41220088 1.22237856
H 1.09647883 -1.32623147 -0.96123388
H -0.27987214 -1.22446798 2.33544705
