9

O 0.20769685 -1.11269855 -1.98713290
C -0.60214340 0.44736879 -0.03450839
C -0.10904117 0.14395042 1.28895360
C 0.28107815 -0.12063481 2.39593644
C 0.03000840 -0.06482539 -1.20990787
N 0.36638384 1.13124032 -1.04553083
H 0.63902541 -0.35189429 3.37496697
H -1.63265925 0.79858281 -0.08182091
H 0.81965133 -0.87108943 -2.70095584
