11

N 0.96579224 0.9830466 -0.5405399
C 0.7623875 -1.0300972 0.805824
C 1.2963972 0.15314461 0.53452873
N 0.25928366 -2.094884 1.125384
C -1.5013562 0.63404804 -0.40801483
C -0.21719787 1.1457297 -0.9814179
O -2.539211 0.75983536 -1.0096784
H 2.183654 0.43218568 1.0942156
H 0.622605 -2.9220164 0.6531959
H -1.4764918 0.17883787 0.5996606
H -0.35586256 1.7601702 -1.8731579
