11

N -0.9711888 -1.8482642 -0.8938859
C -1.0432647 -0.21739328 1.0532051
C -1.0359608 -1.0266211 0.013782304
N -0.09179358 0.77698296 1.380024
C 1.2385795 0.53689396 -0.7190332
C 0.8863277 1.0942291 0.63741684
O 0.82840055 1.0322063 -1.7441242
H 1.5435663 1.8878438 1.0000236
H -1.8597006 -0.31323543 1.7613431
H -1.4187553 -1.5863724 -1.7693816
H 1.9237893 -0.3362698 -0.7193701
