9

N 0.68132853 0.13589207 -0.99910342
C -0.37040676 -0.70573882 -0.51535138
N -0.43487498 0.45084349 1.15717416
C 0.64613135 -0.20615959 0.41398818
O -1.39341329 0.02963996 0.14377312
H 0.37837344 1.08534505 -1.21734147
H -0.64014483 -1.64413696 -0.98086298
H 1.51232540 -0.61664600 0.91309706
H -0.37931890 1.47096081 1.08462642
