10

O -0.66893345 -1.8466163 -1.0412213
C -0.041690867 1.528403 0.28629023
N -0.79185474 0.5159165 -0.6309927
C 0.7981632 0.67130107 0.8942719
C -0.25936016 -0.8844115 -0.4418513
N 0.6870511 -0.7122528 0.48809922
H -0.69744694 0.79258525 -1.6086757
H -1.7927955 0.52870476 -0.43041188
H 1.5424783 0.89769906 1.6458346
H 1.2243891 -1.4913292 0.8386567
