12

N 0.85619193 -1.7378385 0.56715417
C 0.26758835 -0.5451633 0.1689318
C 0.9298118 0.39148697 -0.62495136
N 0.3482262 1.5060736 -1.0624007
C -0.91762006 1.6966157 -0.70024455
N -1.6500313 0.8820708 0.056578178
C -1.0563283 -0.22481672 0.4852948
H 1.8648897 -1.7375925 0.60431045
H 0.44550595 -2.1750767 1.3783324
H 1.9664663 0.2340654 -0.92179114
H -1.400207 2.6028829 -1.056391
H -1.6544931 -0.892708 1.1051773
