10

O 1.01390358 -1.12041671 1.17421954
C 1.22200410 -0.53250082 0.13121353
C 0.24291738 0.41278838 -0.46368732
C -1.08404444 -0.13046853 -0.96578939
N -0.91750389 0.53640834 0.41862511
H 2.12326798 -0.73168187 -0.47698944
H -1.10739689 -1.20512712 -0.72125278
H -1.33859765 1.44772448 0.52905687
H -0.79361225 -0.00337352 1.27616977
H 0.63906206 1.32664712 -0.90156582
