10

O 1.8311483 -0.16256304 0.7785507
C 1.1346639 -0.81161803 0.03274857
C -0.11676901 -0.26657185 -0.5609004
C -1.0600795 0.38864395 0.39441484
N -0.29256174 1.1812001 -0.53860253
H 1.3960198 -1.8517857 -0.24683563
H -0.5072303 -0.78237593 -1.4348342
H -2.1267397 0.3252299 0.19250132
H -0.7710113 0.39590815 1.4430472
H 0.51255953 1.5839322 -0.060089804
