11

N -1.127695 1.0939856 -0.042465325
C 0.7039905 -0.4440235 0.38558275
O -0.32398567 -1.4424746 0.19937149
C 0.98367697 -1.0444734 -0.9461
C 0.12595022 0.9546113 0.47078568
O 0.7993735 1.8670647 0.9091348
H 1.37909 -0.64185697 1.215324
H 0.4543695 -0.45931044 -1.7144157
H 0.27433538 -2.1662877 -0.32178947
H -1.5647933 2.0002453 0.04077009
H -1.7043121 0.28251967 -0.19619836
