11

N -0.064423494 -1.6404611 0.12826174
C 0.20382844 -0.57727414 0.9311722
O 0.7837609 -0.62803125 1.9968946
C -0.2499033 0.7445115 0.36016428
C 0.25531265 1.1965485 -0.94077915
O -1.069241 0.6984485 -0.8015474
H -0.72149324 -1.5256366 -0.62732023
H 0.12923408 -2.5649755 0.4843432
H -0.5295703 1.4832885 1.1088537
H 0.33110607 2.2643008 -1.142392
H 0.9313892 0.5492809 -1.4976513
