12

N -0.2915713 -0.83460504 1.7671114
C 0.09979726 0.29452252 1.085245
O 0.8516079 1.1309236 1.5340846
N -0.49608788 0.37613678 -0.18378612
C 0.26930347 0.9365269 -1.2718843
C -0.07076422 -0.51288515 -1.2546049
H -1.1407323 -1.2892528 1.4713897
H -0.10075395 -0.8214087 2.7568436
H -0.27691877 1.611847 -1.9250544
H 1.2953689 1.21765 -1.0539424
H -0.8694981 -0.8962518 -1.8870986
H 0.730249 -1.2132033 -1.0383039
