12

N 1.6976869 -0.65752816 -0.035879377
C -0.64242756 -0.2301905 -1.2782806
O 1.1687541 1.0274853 1.4155574
N -0.49446365 0.19594231 -0.0007605907
C 0.88770056 0.24403208 0.5494784
C -1.4429086 0.522483 0.8592332
H 0.16756983 -0.0025936752 -1.9598157
H 2.640358 -0.724936 0.3161002
H 1.2992982 -1.3924705 -0.600656
H -1.1667038 0.7149002 1.8862376
H -2.4567177 0.5965606 0.48988265
H -1.6581461 -0.29368475 -1.6410972
