12

N 1.57739550 0.61341658 -0.67179976
C -0.97684219 -0.66535930 1.30243300
O 0.86967564 1.32698629 1.38140745
N -0.46651612 -0.17376528 0.18723410
C 0.73735064 0.68057643 0.37765087
C -0.86951680 -0.40853420 -1.08477764
H -1.90578558 -1.21500875 1.23412580
H -0.45630683 -0.48706137 2.23265034
H -0.69019271 0.38285141 -1.80167224
H 2.44389224 1.12439476 -0.60005751
H -1.72149473 -1.06329156 -1.19781730
H 1.45834096 -0.11520499 -1.35937744
