10

O 0.034615148 -2.5490355 0.5196872
C -0.23904754 -1.9916933 -0.5094193
O -0.23554145 -0.6673746 -0.69816875
C 0.13489977 0.09642359 0.462134
C 0.10363741 1.5116938 0.10882146
C 0.088719465 2.6855562 -0.14035451
H -0.53357804 -2.4895744 -1.4443859
H -0.56354827 -0.12193271 1.2768518
H 1.1352334 -0.20406593 0.79101616
H 0.07461012 3.7300034 -0.36618215
