10

O -0.06790716 -1.38285713 -0.01883185
C -0.34578145 -0.63551938 -1.10512902
O 0.38828830 1.96010324 1.02466274
C 0.27355473 -0.48134982 1.03873011
C 0.17028583 0.92538467 0.43992625
C -0.23961133 0.69492834 -0.95189012
H -0.62358917 -1.21376806 -1.98059368
H -0.42880916 -0.62328498 1.86467133
H 1.28718158 -0.70528224 1.38126012
H -0.41361216 1.46164591 -1.69280588
