10

O 0.012729992 0.18527758 1.3496113
C -0.4024657 0.7940506 0.20921834
O -1.3701166 -0.3950966 -0.58184326
C -0.05054347 -0.42548606 -0.6796696
C 0.62846136 0.75539297 -1.0922358
C 0.5350343 -0.9843975 0.65751255
H 0.048059616 -1.886139 1.0281295
H 1.6224941 -1.0095074 0.6999454
H -1.0146272 1.6884571 0.23106682
H -0.009026388 1.2774484 -1.8217353
