10

O -0.013643502 -1.3756238 -0.95668787
C -0.40471938 -0.38648337 -0.051719222
C 0.68392146 0.00819033 0.94521415
O 0.63164383 1.3849406 0.4717198
C -0.26155955 1.0742049 -0.50524455
O -0.6927176 1.7724285 -1.3663657
H -0.6535539 -1.3955021 -1.6784288
H -1.3824255 -0.5847575 0.40875
H 1.6521888 -0.44456026 0.7269011
H 0.4408653 -0.0528375 2.0058613
