10

O 1.008019 -1.0369718 0.793856
C -0.24621232 -0.6577814 1.3289344
C 0.5087689 0.28070122 0.4066684
O 1.102084 1.3739359 0.6393857
C 0.05895872 0.17782609 -0.9885078
O -0.6792593 1.1120423 -1.4863439
H -1.0937101 -1.2768021 1.0263909
H -0.8234077 0.98611534 -2.43622
H 0.40295225 -0.61919373 -1.6571587
H -0.23819362 -0.33987206 2.3729951
