11

C 0.93894607 1.0907186 -0.7687573
N 0.08806458 0.13763441 -0.086775385
C 0.37719807 -1.0696032 0.42610958
N -0.6997001 -1.6126184 0.9605729
C -1.6397613 -0.6628149 0.7362125
N -1.2161105 0.4142917 0.10634493
H 0.5766314 1.242422 -1.787844
H 0.9240201 2.041783 -0.23177645
H 1.9570688 0.6973633 -0.79488754
H 1.3652267 -1.5112795 0.3924443
H -2.671584 -0.76789707 1.0483565
