11

C 1.07938273 -0.27307162 -0.91733563
N 0.01979543 0.03833108 0.01588488
C -0.21339396 1.08891989 0.81131172
N -1.06342476 -0.78172407 0.25871883
C -1.91760361 -0.26568006 1.16216421
N -1.32177594 0.96440837 1.49706349
H 0.68096217 -0.36605832 -1.93201591
H 0.47626007 1.92453175 0.84546906
H 1.80718228 0.54030981 -0.89481664
H 1.57889735 -1.20280398 -0.62866926
H -1.12628194 -1.66716290 -0.21777472
