11

O 1.1988937 0.6370646 -1.9693797
C 0.16507316 0.68530554 -1.3565191
C 0.042999513 0.15982147 0.052471705
C 0.8659615 -1.0052558 0.4384864
O 1.1991309 0.28688744 0.8718971
C -1.252653 0.3661156 0.7768969
O -2.2893035 0.60063154 0.20915596
H -0.7670834 1.1031677 -1.7841166
H 0.49770972 -1.683523 1.2115366
H 1.5147179 -1.4237106 -0.32923254
H -1.1754463 0.27349567 1.878803
