15

N -1.9756334 -1.0351077 0.3742254
C 0.88491184 1.0989141 0.32920882
O 0.13373476 -1.5075747 1.0872946
N -0.47408924 0.71094996 0.70630586
C -0.7060195 -0.62089616 0.57919335
C 1.1465017 0.44366756 -1.0518543
O 0.62468284 -0.8346654 -1.0388687
H -2.0640113 -2.034003 0.26268825
H -1.1901652 1.2998264 0.31252855
H 1.5697722 0.7006739 1.084597
H 0.776892 -1.4912217 0.26766747
H 0.6748727 1.0704482 -1.8332312
H 0.9586645 2.1903956 0.33036163
H 2.2319908 0.4689172 -1.2390901
H -2.5921042 -0.4603243 -0.17102645
