12

C 0.51473457 -1.47964631 0.80951827
C -0.79206025 0.66797583 -1.50852567
N -0.18212416 1.23178824 -0.45919003
C 0.00734528 0.79250525 0.77741945
O -0.43934863 -0.45989282 1.08749364
H 0.03072737 -2.43501378 1.02885818
H 0.63448888 1.35625246 1.45394972
H 1.40427406 -1.36382674 1.44598272
H -1.28568158 -0.28168285 -1.36721220
H 0.81725606 -1.45293103 -0.24475265
H -0.89236667 1.26042974 -2.40670012
H 0.18275517 2.16404233 -0.61684134
