11

N 2.2609575 -0.6424635 0.7223072
C 1.1070342 -0.31674597 0.3401558
O 0.50898236 -0.90090585 -0.7242631
C -0.8564776 -0.4988481 -0.7560092
C -0.8351538 0.8037031 0.038182624
O 0.28946263 0.6194993 0.8962461
H 2.54849 -0.06359081 1.5041319
H -1.4741893 -1.2642304 -0.27353773
H -1.1636136 -0.37477204 -1.7960595
H -0.6608011 1.6754681 -0.6021131
H -1.724691 0.9628861 0.6509588
