11

N 1.85141105 -0.37186548 1.37298418
C 0.80378123 -0.19579272 0.67823062
O 0.89153980 0.12668012 -0.70015605
C -0.38268018 0.15239395 -1.23803741
C -0.56160334 -0.34137252 1.10058596
O -1.23632856 0.52692321 -0.11439571
H 2.67968468 -0.40408163 0.77998624
H -2.11258092 0.13691502 -0.26053343
H -0.69381209 -0.83632267 -1.59301063
H -0.45991379 0.93144066 -1.99988269
H -0.77949758 0.27508198 1.97422872
