11

N -1.3839724 0.03999784 -1.8044944
C 0.86570656 0.03418201 -0.94127005
O 1.1794422 -0.5757468 0.7087672
C -0.58533996 0.05355375 -0.8218373
C 0.10604695 0.09437081 1.3639455
O -0.99893725 0.11878095 0.48926368
H 0.4027965 1.1169535 1.6268636
H 1.1769254 -0.77613723 -1.6049532
H -2.3400624 0.19426437 -1.4914247
H 1.7364076 0.18495804 0.2246688
H -0.15901296 -0.48517722 2.2504709
