10

O -1.0934476 1.6746173 1.5304314
C 0.58819556 -1.0625681 -0.15314047
N 1.3171632 -0.27967393 0.52601236
C -0.690336 -0.5533344 -0.73260003
C -0.70396686 1.5222828 0.40196425
N -1.2195519 0.5679914 -0.48581466
H 0.005944747 2.1994326 -0.110820785
H 2.168849 -0.74621046 0.84208405
H 0.8251557 -2.1104248 -0.37628886
H -1.1980059 -1.2121121 -1.4418274
