11

O -1.1853096 0.057165336 2.1710966
C -0.18748407 0.13373677 -1.425334
C -1.3285202 0.1682056 0.86199087
C -0.28312972 0.048015524 0.008222857
N 1.0567886 -0.061184943 -1.775373
C 1.7178496 -0.2605091 -0.56845295
N 0.9968492 -0.20728648 0.5113056
H 2.7864687 -0.45211565 -0.5449905
H -2.3491473 0.36572388 0.54979384
H -0.24512842 -0.11468808 2.3512263
H -0.97923636 0.32293713 -2.1394858
