9

O -1.02077063 -0.94197347 1.62807493
C 0.75014896 0.44567433 -3.75949917
C 0.10051920 0.28054298 -0.11552622
C 0.31161410 0.33734877 -1.29555530
C -0.16714996 0.13623923 1.32318131
N 0.54485381 0.40005646 -2.59811307
H -0.63690456 -1.75003737 1.26722749
H -0.67536485 1.03104176 1.69397878
H 0.79305395 0.06110749 1.85623120
