9

O 1.6802139 0.93061805 0.605986
C 0.56264293 0.30962667 0.19490238
N 0.42968306 -0.24523331 -0.99904215
N -0.8081292 -0.72654974 -0.9574501
N -1.4793608 -0.52996993 0.1550337
C -0.6252076 0.1380662 0.9261923
H 2.3243911 0.88822335 -0.11148263
H -1.2073777 -1.2201622 -1.7391185
H -0.8768561 0.4553809 1.9249787
