9

O 1.3123873 0.0877223 1.3224503
C 0.2742917 -0.21869843 0.47940022
N -1.0087352 -2.2400599 0.95096576
N -0.405178 -1.3007073 0.7365556
N -0.93346804 0.21067652 -1.5434039
C 0.003015632 0.52397966 -0.7374783
H -0.95304716 0.85461026 -2.3307605
H 1.0093038 0.7217777 1.9853438
H 0.7014298 1.3606988 -0.86307275
