11

N -0.6150539 -1.1132765 1.2494502
C -0.39518285 -0.35613027 -0.83895785
C 0.157011 0.050758358 1.325952
N -0.8776028 -1.3595483 -0.058054693
N 1.0937747 1.5950433 -0.39932796
C 0.3166567 0.49337158 -0.025935087
H 0.6867103 2.1519256 -1.1401291
H 0.4710711 -1.2190259 1.6920501
H 1.2897087 2.1745796 0.40533745
H -0.5900221 -0.3407288 -1.9045771
H -1.537071 -2.076969 -0.30580795
