11

N -1.3504652 -1.0596931 -1.1257594
C 0.33925045 0.6806454 -0.5934391
C -0.44495687 -0.3911661 -0.28993493
N 0.77381355 0.015768489 1.434075
N 1.0729327 1.0364093 0.52669483
C -0.18062826 -0.8258835 1.0678874
H 1.154706 0.10761752 2.3614814
H -1.9766538 -1.6296818 -0.572733
H 0.43184012 1.2749976 -1.4928855
H -1.8798981 -0.44658935 -1.730955
H 2.060059 1.2375757 0.415568
