9

N -1.1719103 -0.16370884 0.28002313
C 0.046428192 -0.9154521 0.23831344
N 0.95762575 0.7299934 -0.5396543
C 0.07758136 0.49982333 0.61542916
O 0.80122244 -0.6656983 -0.93917567
H 0.15602165 -1.8775785 0.71925515
H 0.18944141 1.0571892 1.5352648
H -1.5440251 0.05435479 -0.6444196
H 0.4876144 1.2810769 -1.265036
