10

C 0.05723 -0.079974316 1.2979811
C 0.5702552 0.5692567 0.08731343
N -1.1079035 -0.3644878 -1.1832459
C -0.28298742 -1.0610465 -0.30681762
N -0.68086416 -1.1197389 1.0207598
C -0.3696505 0.70155555 -1.0253825
H 0.549136 -1.658434 -0.6774146
H 1.4713703 1.1811488 0.12718561
H 0.25787187 0.24827142 2.316718
H -0.4644579 1.583449 -1.6570973
