10

C 0.8202878 -0.0935943 0.78379285
C 0.44840264 1.1360196 0.26216576
N -0.51136744 1.2581812 -0.6579467
C -1.0913007 0.12600902 -1.0462918
N -0.8235031 -1.1074451 -0.6186571
C 0.13718344 -1.2031994 0.2991805
H 1.6008936 -0.1847062 1.5303411
H 0.92768025 2.0579898 0.5857712
H -1.8742385 0.21558173 -1.7971123
H 0.3659619 -2.2048364 0.6587567
