10

O -0.61151527 -1.92393753 -0.28684747
C 0.59770968 -1.36174555 0.15414740
C -0.46758590 2.05213743 -0.02348837
O 0.45254059 2.76087722 -0.25143237
C 0.74887498 0.10734799 0.38583803
O -0.39437084 0.65463551 -0.02832768
H -1.12845949 -1.22075405 -0.69492975
H 0.88098769 -1.83398378 1.10669727
H 1.42877063 -1.58111722 -0.54092749
H -1.50695203 2.34653989 0.17927036
