12

N -1.5256546 -1.0972258 -1.3443401
C -0.6197157 -0.45315668 -0.5527598
N -0.69030374 -0.6973024 0.7658
C 0.21981326 -0.090279676 1.5163623
C 1.1938057 0.7571129 0.9960341
C 1.1568483 0.93658143 -0.38220286
N 0.2636355 0.3456515 -1.1688814
H -1.6468477 -0.74706376 -2.2805936
H -2.321969 -1.5034921 -0.88042414
H 0.16694954 -0.2848494 2.5847323
H 1.9296358 1.2459055 1.6242113
H 1.8738025 1.5881186 -0.87793773
