9

N -0.62134596 -1.15933312 0.73990724
C 0.30201220 -0.03789087 0.95882503
C 0.36334280 0.65130670 -0.35927177
N -1.01966642 -1.15260909 -0.44423888
C -0.43936398 -0.05351941 -1.16151961
H 1.26250244 -0.44582349 1.29558081
H -0.09196087 0.58211640 1.77260660
H 0.94071869 1.53525289 -0.59700588
H -0.69623879 0.08049956 -2.20488377
