9

N 0.26128694 -0.6713023 1.3261482
C -1.216768 -0.12699175 -0.21995823
C 0.9697939 0.05262714 0.26215005
N -0.95101506 -0.7633583 1.0384748
C -0.091558464 0.38353232 -0.7278837
H 0.040130254 0.9246958 -1.6558069
H 1.7590439 -0.6001985 -0.12933186
H -2.2312093 -0.12639855 -0.59872335
H 1.4602954 0.9273943 0.70493096
