10

O -0.6504304 -0.98788065 1.357453
C -0.6529472 0.39147463 -1.2012947
C 0.030222522 -0.5113053 0.35752955
N -0.32877052 -0.85682505 -0.9572555
N 1.0708348 1.3765751 0.15365553
C 1.2996428 0.20597607 0.6038773
N -0.34667647 1.3364013 -0.25160658
H 2.2378805 -0.15737733 1.0080823
H -1.4182174 -1.4695474 1.0031084
H -1.2415386 0.6725084 -2.0735493
