10

O -1.2015971 1.1891282 0.81467146
C -0.26070258 0.35691538 0.32736605
C 1.0655953 0.9350032 -0.08312728
N -0.2222292 -0.22077182 -1.0919417
N 1.1381378 0.36097556 -1.2294872
C -0.122691736 -1.439895 -0.36114976
N -0.24913259 -1.0328312 0.8519069
H 0.02739585 -2.4439857 -0.7457467
H 1.7649482 1.6333507 0.36266407
H -1.939724 0.6621106 1.1548438
