10

O -1.78560777 0.55732068 0.15016538
C 0.60304980 -1.34400379 -0.22082727
C 0.55361119 1.28649194 0.23470766
N 1.29391954 0.85975364 -0.72380639
N 0.33617941 -0.22497099 -1.06152442
C -0.48591948 0.20228853 0.15963892
N -0.14349846 -1.09553592 0.79609165
H 1.27211587 -2.17890707 -0.40501827
H 0.68475481 2.17809941 0.83749378
H -2.32860483 -0.24053623 0.23307880
