17

C -2.13409900 -0.79380578 0.66721639
N -0.78263862 -0.33864469 0.91187210
C 0.01388777 -0.03433791 -0.16895572
O 1.22576067 0.50009845 0.11287867
N -0.34548886 -0.27026593 -1.36607436
C 1.63588716 0.73180463 1.44472513
C 0.61258675 0.03041230 -2.40439940
H -2.10209836 -1.67296437 0.02179240
H -2.59375304 -1.06699532 1.62020596
H -2.74794784 -0.03452007 0.16874866
H -0.66463628 0.22250951 1.73793716
H 1.00769489 1.48395300 1.94052015
H 1.63816988 -0.19211076 2.03426881
H 2.65226817 1.11921332 1.37000002
H 0.13525902 -0.16421622 -3.36852808
H 0.93836588 1.07869390 -2.38469816
H 1.51078165 -0.59882418 -2.33750961
