11

C -0.85495347 0.24005924 -1.4173982
C -0.75943184 -0.23545094 -0.063056625
N 0.48162052 0.22690244 1.5703547
C -0.699233 -0.45530137 1.1942238
C 1.6223071 0.062029306 0.876363
O 1.7563188 -0.30132973 -0.28691834
H -1.0805798 1.3127517 -1.4308076
H 2.498535 0.3264997 1.4933
H -1.349398 -0.9283094 1.9200201
H 0.07344194 0.034541707 -1.9543717
H -1.6886275 -0.28239268 -1.9017087
