11

C -0.5828803 -1.5926727 0.076195985
C 1.4648019 1.1784152 -0.130701
N 0.31686378 0.93539786 0.6441054
C -0.5869253 -0.123766415 0.10896196
C -1.0274628 1.0747876 0.013162741
O 2.0461943 0.33041924 -0.76186156
H -1.5418627 -1.9745532 -0.27649295
H -1.750105 1.8582727 -0.12568907
H -0.3808891 -1.9792109 1.0806645
H 1.8263589 2.2189748 -0.037187528
H 0.21590653 -1.9260644 -0.59115857
