11

O -0.9462748 -0.2759253 -1.773517
C 0.7741297 0.1609364 0.90399885
C -0.7762031 -0.3708215 -0.5203242
N 1.1354275 0.9250734 1.7410082
C 0.5202039 -1.0741878 0.0842095
C -0.25761956 1.0887982 -0.07655843
H -0.9232249 1.8204104 0.38874057
H 1.2786043 -1.1635889 -0.6990674
H 0.42941365 -2.0099669 0.64395505
H 0.40166387 1.5236577 -0.83438456
H -1.6361203 -0.6243853 0.14193964
