11

N 1.6287992 -0.92508584 -0.17776892
C -1.3742056 -0.14812422 0.691218
C 0.4926671 -0.26243764 -0.13152479
O -0.24647842 0.48402202 1.1875906
C 0.8075813 1.00565 -0.6902141
O -0.7414987 -0.83639747 -0.40159988
H -1.8099035 -0.8715208 1.391833
H 0.2534894 1.4093324 -1.5376128
H -2.1504102 0.5366691 0.32403958
H 1.681304 1.5254244 -0.31484503
H 1.4586555 -1.917532 -0.34111568
