10

N -0.5429518 -1.1144547 1.5800754
C 0.18014316 1.3879197 -0.6305829
C -0.11771731 -0.47478557 0.42141092
N 0.7123755 0.38959476 -1.3136315
C 0.55517465 -0.87462395 -0.69598573
O -0.3469061 0.92750293 0.46514255
H -1.5520736 -1.1326435 1.6824942
H -0.19743082 -2.0636356 1.5651855
H 0.12577511 2.4383278 -0.8775123
H 1.1836114 0.51679796 -2.196596
