10

N -0.49158663 1.5509578 0.4396018
C 0.17845161 -0.3681751 -0.387478
C 0.36328995 0.9643952 -0.602776
N 0.58214617 -1.5158559 -1.0574306
C -0.99744827 0.58835864 1.1569412
O -0.7142729 -0.60069525 0.6447212
H 0.45995212 2.1118326 0.15127574
H 1.1566488 -2.1246107 -0.4863889
H 1.0906826 -1.2492764 -1.8915377
H -1.6278632 0.64306897 2.0330713
