9

O 0.90882874 -0.898983 -1.3865012
C 0.69734794 0.76500493 0.32969108
C 0.39186588 -0.45791534 -0.25216538
O -0.13252127 0.8301953 1.5358855
C -0.97519046 0.18423025 0.70601994
N -0.6827321 -1.0841273 0.34323323
H 0.4873689 -1.7502087 -1.5809965
H 1.1528468 1.667235 -0.046051957
H -1.8478144 0.7445688 0.35088542
