11

N -1.3325121 -0.073328815 0.41317308
C -0.49117252 0.770177 -0.3503515
C 0.9209453 0.18165658 -0.3702937
N -0.7980394 1.844191 -0.937611
C -0.5865548 -1.0650495 0.77505946
N 0.69482756 -1.083261 0.31263548
H 1.4238472 -1.6050172 0.7706891
H -0.9454197 -1.8796744 1.3966527
H 1.6191174 0.82446766 0.17699616
H -1.7864527 2.0403895 -0.7926948
H 1.2814138 0.045449484 -1.3942549
