11

N -1.08372264 0.53302783 0.70221378
C -0.32483872 -0.26447040 1.37972079
C 0.72614771 -0.31024496 -0.62826294
N 0.68705974 -0.88276200 0.70898586
C -0.53365953 0.55750476 -0.60130284
N -0.96483954 1.17722172 -1.61253069
H 1.61949501 0.30400146 -0.78577009
H -0.47949005 -0.47594242 2.43335187
H 1.49764084 -1.25026563 1.17952984
H 0.66842663 -1.07223120 -1.41122634
H -1.81221950 1.68416064 -1.36470907
