11

C -0.5933258 2.5651937 -1.4063725
C -0.44588625 -1.2428939 0.17294511
O -1.158424 -0.0793979 0.63851136
C 0.8086987 -0.40939194 -0.1102503
C -0.051967595 0.7648837 0.38469368
N -0.3484134 1.7598686 -0.5903531
H 1.1075169 -0.33844173 -1.155961
H -0.931192 -1.6857196 -0.7027823
H 0.29080305 1.2816216 1.2865515
H 1.6745929 -0.62165964 0.5196432
H -0.35240233 -1.9940631 0.9633745
