11

C -0.5331603 -1.0784122 -1.412077
C -0.01741553 -0.25035414 -0.28651994
N 1.1579869 -0.2625067 0.2487581
C 1.0910605 0.69253737 1.2545589
C -0.14144555 1.2350721 1.2662245
O -0.86966103 0.63911873 0.2777291
H -1.4256233 -1.6343734 -1.1094117
H 0.24256507 -1.7844913 -1.7130073
H -0.8004481 -0.45644802 -2.2714157
H 1.9377733 0.9111854 1.8909926
H -0.6416321 1.9886721 1.8541685
