11

O -1.5696977 0.062266108 1.8036273
C -0.6990139 0.01654793 0.784298
N 0.40072384 0.71006006 0.6648481
C 0.9224354 0.29670712 -0.5412729
O 2.0813367 0.8135384 -0.99562144
C 0.13965496 -0.6399559 -1.1453298
N -0.9275671 -0.81007284 -0.24983062
H -1.2178185 0.70482606 2.4323153
H 2.36983 1.4523546 -0.3325748
H 0.21821304 -1.1810163 -2.0732534
H -1.7180965 -1.4252554 -0.34720585
