10

N 1.9835163 -1.9088062 0.40019932
C 1.0448025 -1.2329445 0.04406419
C -0.054171115 -0.57581913 -0.27298093
N -1.5144936 1.2983228 -0.03297882
C -0.31549916 0.75352347 0.3363332
O 0.44865158 1.3044703 1.1045699
H -0.7551011 -1.0439147 -0.9547877
H -2.0367892 0.93947136 -0.8141939
H -1.6802386 2.2516024 0.24908318
H 2.879322 -1.7859057 -0.05930835
