10

N -0.96089639 1.61980500 0.65827831
C -0.73409286 0.29770612 0.39107040
C 0.81889273 -1.17621197 -0.74809508
N 1.06921628 -2.27172874 -1.19752359
C 0.51192296 0.05266503 -0.37971313
O -1.49482481 -0.58388224 0.73999053
H -1.72117925 1.82670804 1.28671563
H -0.23727763 2.30998873 0.54925370
H 1.57671807 -2.93449722 -0.62141634
H 1.17152090 0.85944730 -0.67856042
