10

N -0.69079494 1.267605 -0.9277105
C -0.34801507 2.2210608 -0.24185231
C -0.44290882 -0.01587968 -0.8824461
N 0.5964533 -1.6491003 0.57757705
C 0.23577102 -0.34819847 0.37105918
O 0.45502615 0.52734387 1.2111872
H 0.67196524 -2.2765605 -0.20296766
H -0.995674 2.780165 0.42961013
H -0.7011888 -0.6916197 -1.6857792
H 1.2193658 -1.8148158 1.3513224
