10

N -0.8246164 0.87360317 1.3539093
C -0.1714712 0.17840503 0.3495627
C 0.3513428 -1.066444 0.21255635
N 0.98685324 -1.1494294 -1.0254982
C 0.8105324 0.0069939108 -1.5524832
O 0.11275748 0.8810376 -0.7744776
H -1.501477 1.5387058 1.0050783
H -1.2341901 0.2696035 2.050558
H 0.33466047 -1.9028263 0.89638436
H 1.1356083 0.37035075 -2.51559
