10

C 1.06038014 -0.00210015 0.03077966
C 0.08982968 0.70283339 0.79606381
N 0.12070919 0.90987471 -0.67891305
C -0.91056170 0.00890156 -1.16939771
N -1.09028011 -1.01682096 -0.44733130
C -0.09704459 -0.78111669 0.60174508
H 2.13914860 -0.02226589 -0.02635657
H 0.11708920 1.45257038 1.57500339
H -1.43995977 0.25172214 -2.08445740
H 0.01068921 -1.50359874 1.40286419
