10

C -0.74851245 -0.25272387 -1.2540146
C -0.023765799 -0.7391409 0.6593663
N -0.8224891 -1.238408 -0.46108362
C -0.13785133 0.7630676 0.7310859
N 0.032501075 0.864069 -0.74544895
C 1.0310498 0.20534801 0.1418675
H -0.34329408 1.5586709 1.4342247
H -1.1989676 -0.18429326 -2.2383752
H 2.093987 0.39016852 0.20033528
H 0.11734257 -1.366758 1.5320426
