10

O 0.5686667 1.2390664 -1.8183383
C 0.13056922 -0.83311903 -0.481081
C 0.21712138 0.97827494 0.6662297
C 0.3823768 -0.51889724 0.99805915
O -1.2251077 -0.9997852 -0.0071825795
C 0.24606138 0.64226645 -0.83233535
H -1.2350644 -1.8336185 0.49313518
H -0.6838168 1.440227 1.0764645
H 1.0970143 1.5453908 0.99171174
H 0.5021792 -1.6598057 -1.0866632
