10

O 0.33383936 -0.51065695 -2.236704
C 0.14724663 -0.32488665 -1.0698894
C -0.9075254 0.48375276 -0.2651585
C 0.010118993 0.2685434 0.94114655
O 0.07494905 -1.1296319 1.1372102
C 0.9748548 -0.55352825 0.18806744
H -1.9091569 0.059736785 -0.17076674
H -0.96355796 1.5136565 -0.63247
H 0.20277475 0.9199972 1.7851813
H 2.0364566 -0.7269828 0.32338297
