10

O 1.2426326 0.5093848 -1.75278
C 0.47222367 0.08445742 -0.7377476
N -0.064823195 -1.0923564 -0.6077729
C -0.7518358 -1.0237063 0.5929387
C -0.6137777 0.20300768 1.1652695
N 0.19186142 0.92334473 0.28497514
H 1.3052534 -0.239731 -2.3613
H -1.3043292 -1.8743483 0.96660346
H -0.9893711 0.6366583 2.0785835
H 0.51216584 1.8732889 0.37122974
