9

O 1.8816584 1.122798 -2.024515
C -0.84622794 -0.5582756 1.3073177
C 1.20938 0.43064284 -1.345264
N -0.035336357 -0.909251 0.38901892
C 0.27932405 -0.112875134 -0.6200457
N -1.4876614 0.7075317 1.2693921
O -1.009594 1.417573 0.39219075
H -1.1454371 -1.2467113 2.0929341
H 1.1538945 -0.8514323 -1.4610294
