9

N -0.2594894 1.2203468 1.5198039
C -0.3688153 1.157002 0.16802503
O -0.74340993 2.066446 -0.5424935
C 0.01371602 -0.1393401 -0.40980986
C 0.30323297 -1.1634636 -0.9763088
C 0.63346386 -2.3389215 -1.630034
N 0.9095783 -3.3219953 -2.1729894
H 0.033487782 0.4339129 2.0755255
H -0.5217646 2.0860126 1.9682809
