10

C -0.9026719 0.8214612 -0.59928703
C -0.44260362 -0.27395883 -1.2819152
N 0.046390627 -1.253463 -0.41042575
C 0.280276 0.25403962 1.310692
C 0.7890874 -0.86787504 0.7197972
N -0.94645107 0.25222418 0.66042894
H 0.749304 1.0713862 1.8484964
H -0.32658702 -0.44485018 -2.3482764
H -0.9305607 1.8766938 -0.8508989
H 1.6838162 -1.4356579 0.9513884
