9

N 1.1075332 -0.9801283 -2.188222
C 0.89527047 -0.5105736 -1.154059
C 0.6161468 0.05208957 0.15517147
C -0.7091683 0.69180524 0.37928188
N -0.3923238 -0.5776108 1.0061578
H 1.4910733 0.42354655 0.6808903
H -0.76626974 1.5424811 1.0524457
H -1.4039137 0.71040195 -0.45661512
H -0.83834815 -1.3520114 0.5249492
