9

O 0.37174574 1.9479431 -0.7012318
C 0.6179374 0.74070346 -0.24309333
N -0.81307405 -1.0391148 0.8275678
N 1.2717814 -0.310491 -0.46230954
N -1.3618746 -1.1847147 -0.2728048
C 0.38497072 -0.23337677 0.7731093
H 0.83689594 2.0593345 -1.5459883
H 0.87446666 -0.195319 1.7435434
H -2.1828496 -1.7849653 -0.118792646
