11

N 0.10820544 -0.093039155 1.110553
C 1.1223549 0.688172 0.5817138
O 0.8568388 0.8904997 -0.73665
C -0.39663956 0.29234588 -1.0697793
C -0.64920676 -0.72246826 0.05096244
O 2.0791233 1.137844 1.146696
H -0.2551427 -1.7150701 -0.20371115
H -0.31731412 -0.16064402 -2.0589957
H -1.7095495 -0.8139812 0.29458594
H -1.164323 1.0726926 -1.08271
H 0.325653 -0.5763513 1.9673352
