11

N 2.2616575 -0.64141726 0.7223349
C 1.1082208 -0.3192511 0.34108487
O 0.5077003 -0.90304875 -0.7258226
C -0.85603845 -0.49809778 -0.7558926
C -0.8357194 0.80413395 0.037192147
O 0.28913066 0.6199071 0.89546525
H 2.5505245 -0.061660945 1.505193
H -1.4741335 -1.2650033 -0.27469257
H -1.1623356 -0.3754278 -1.7960184
H -0.66385 1.6779028 -0.6000888
H -1.7251563 0.961963 0.65124476
