13

C 0.5826951 -1.5843484 -1.1668916
N 0.22997953 -0.6426945 -0.12610984
C -0.050503444 0.66191083 -0.3792485
O -0.071661815 1.1686155 -1.4849821
C -0.3362715 1.4767343 0.87882954
O -0.5637276 0.69487196 2.0383976
H -0.11307525 -2.428426 -1.1834176
H 0.531558 -1.0560405 -2.119815
H 1.6011012 -1.9625987 -1.0243744
H 0.27057242 -0.9131779 0.84652954
H -1.1695656 2.153415 0.6529265
H 0.54711324 2.0934994 1.0814556
H -1.4582145 0.33823898 1.9866999
