12

N 0.5886016 -1.1917495 0.7324444
C -1.6715105 -0.47329703 -0.9714767
N -0.68470275 -0.043221932 -1.8302373
C 0.43061978 0.21613935 -1.2542409
C -0.86991227 0.78040975 0.6669931
C 0.48932466 0.19192496 0.27169442
N -1.9088851 0.4679398 -0.020240357
H 1.2891637 0.5283271 -1.8460325
H 1.2896268 0.8599761 0.62193143
H 1.4528577 -1.6161597 0.4238655
H -0.96158713 1.5196679 1.46017
H 0.5564035 -1.2399571 1.7451286
