12

N 0.57508807 0.27778377 -1.84731274
C 0.88295505 0.73954896 -0.69190142
N 0.56838755 -1.05186025 0.93472948
C 0.08665227 0.26502178 0.52186834
C -0.36025996 -0.73232944 -1.81538718
C -1.33651765 0.15181701 -0.03658711
N -1.50526450 -0.29340605 -1.22935396
H 1.64047014 1.51577686 -0.60015569
H 1.52943315 -1.00599331 1.24548845
H 0.00742209 -1.42131971 1.69480016
H -2.19738310 0.51740562 0.51955327
H 0.10901753 1.03755470 1.30425857
