12

N -1.0753345 1.3166667 -0.12816714
C 0.20237345 1.3827237 -0.017918957
N -0.9769278 -0.78514594 1.1626073
C 0.2951362 -0.63502944 1.2099941
C 0.87651855 0.04952943 0.020271305
C -1.4762534 -0.12576617 -0.09939518
N -0.48979932 -0.6318934 -1.004742
H 0.887651 -0.9822464 2.0524719
H 0.73420066 2.3276455 0.03883331
H -0.41673452 -1.6455005 -1.0537171
H -0.4875447 -0.20371315 -1.9329829
H 1.9267145 -0.067270145 -0.24725446
