12

N 2.1679037 0.39607266 -0.6919943
C 0.8845853 0.16637635 -0.2825814
N 0.70729935 -0.8411929 0.58655536
C -0.5390787 -1.025436 1.005655
C -1.608673 -0.23959106 0.58511597
C -1.2952358 0.76551574 -0.32146758
N -0.061035104 0.98249847 -0.77005607
H 2.290228 0.96199226 -1.5161927
H 2.8317997 -0.3444273 -0.52861977
H -0.6912982 -1.842731 1.7074484
H -2.6196864 -0.40468368 0.93770725
H -2.0668082 1.4256064 -0.71157
