11

C -0.34556939 0.32978121 0.28724263
N -0.80970760 -0.25416282 -0.94849489
C -0.02396174 0.22722048 -1.82020139
C 0.07136329 -0.71430220 1.31755686
N 0.97422425 1.13016742 -1.29134195
N 0.78695692 1.19740416 -0.06036826
H -0.78210082 -1.34885179 1.56537861
H -1.12855754 0.97749951 0.70087483
H 0.87037835 -1.34102651 0.91094864
H -0.04664842 0.01714259 -2.88359286
H 0.43362262 -0.22087249 2.22199743
