11

C -1.3065969 -0.78744733 0.6830479
N -0.12762628 -0.05197216 0.26570237
C 0.39668608 0.09998298 -0.9722945
C 1.4878143 0.90490323 -0.7695896
N 1.5702174 1.1936703 0.5527779
N 0.5926592 0.61404675 1.171821
H -1.364932 -0.70859236 1.7687851
H -2.2031016 -0.35228494 0.23505788
H -1.2202747 -1.8375914 0.395125
H -0.030592676 -0.3609645 -1.850076
H 2.2057471 1.286249 -1.4803574
