11

C 0.5451931 -0.11501447 1.3931305
N -0.893908 -0.7421351 -0.5196456
C -0.4759414 -0.51426274 -1.6953908
C -0.35224995 0.35106617 0.25170365
N 0.3982209 1.1936346 -0.6880254
N 0.3274224 0.68146783 -1.8227319
H -0.66859645 -1.1258346 -2.5696406
H 0.9447647 0.7486431 1.9289995
H 1.3779942 -0.70288384 0.99640566
H -1.1742404 0.9634248 0.64291924
H -0.028658973 -0.73810565 2.0822756
