11

N -1.2426751 0.04413993 0.5660888
C 0.034760688 -0.36665148 0.29854304
C 0.7465863 0.31591645 -0.6320516
N -0.19870004 1.2663866 -0.9893544
C -1.345982 1.0621357 -0.25801656
N 0.90322167 -1.4247606 0.78454363
H -2.223746 1.6859112 -0.36604378
H 1.6311729 -0.85195655 -0.06811943
H 1.1735531 -1.3545444 1.7642184
H 0.6038831 -2.3741708 0.5721484
H -0.08207446 1.9975938 -1.6719567
