10

O -0.012893259 -1.3752652 -0.9572811
C -0.40585226 -0.38616887 -0.052769307
C 0.6835693 0.009809204 0.94485104
O 0.63372916 1.3873537 0.47313893
C -0.26125136 1.0720658 -0.50243515
O -0.6954288 1.7709092 -1.3635457
H -0.64921385 -1.3950459 -1.6821539
H -1.3835595 -0.58562165 0.40743497
H 1.6524206 -0.4453544 0.72775644
H 0.43847996 -0.052681938 2.0050035
