10

O 1.3744998 0.3718216 1.0583965
C 0.14218956 0.20587063 0.43072218
C -0.353065 -1.0259238 -0.07360491
O -0.83277434 -1.9177723 0.6930886
C -0.08964221 0.6557519 -1.0226243
O -0.6734133 -0.6913773 -1.3154548
H -0.85011345 1.4079485 -1.2376015
H -0.7765681 -0.76929015 1.273965
H 0.82026833 0.79660535 -1.6101166
H 1.2386189 0.9663655 1.80323
