10

O -1.1728774 -1.3974197 -0.3946816
C -0.12626022 0.8714204 -0.22928806
C 0.9445009 -0.34923768 0.8551316
O 0.9673087 1.0907078 0.55542004
C -0.24307767 -0.45174578 -0.07563333
O -0.6948649 1.9130902 -0.83154005
H -1.5055221 1.611103 -1.261722
H -0.8122856 -1.9691283 -1.0860077
H 1.8871837 -0.8115393 0.5481058
H 0.75589484 -0.50725085 1.9202152
