10

O -0.58970845 -1.67353635 -0.57941078
C -0.06532692 -0.49865986 -0.12630179
C 0.97427403 -0.07900776 0.88873323
O 0.49951524 1.30065556 0.70185515
C -0.41649760 0.79082220 -0.17034733
O -1.29267002 1.62226036 -0.72903078
H -0.02521752 -2.01553699 -1.28594776
H -1.92825365 1.09981469 -1.23549089
H 2.03017258 -0.15327176 0.61268688
H 0.81371230 -0.39354013 1.92325380
