11

C -0.25139418 -0.6468006 -0.4473264
C 0.36678705 -0.86341417 0.6675936
C -0.10048007 0.5311331 -1.3067058
C 0.6490678 -1.1612287 1.9770586
O 0.9471897 0.7924749 -1.8704082
N -1.2373656 1.3009052 -1.4378995
H -0.018628791 -0.87976706 2.7896397
H -1.2049115 1.9649565 -2.1990814
H 1.3729173 -0.29928955 0.8413132
H 1.6041312 -1.6083933 2.236223
H -2.127313 0.8694235 -1.2504066
