10

O 1.7360609 0.1291175 -1.0173094
C -0.65225774 -0.35417426 1.2606353
C 0.52907157 -0.35415527 -1.1969562
O -0.75655967 1.5184476 -1.687829
C -0.45651934 0.71221924 -0.8386289
O -1.1070797 0.63035905 0.3245539
H 2.378418 -0.5083889 -1.3654376
H 0.32890016 -0.07953975 1.6630298
H -0.61006737 -1.3419235 0.7949103
H -1.3899665 -0.3519617 2.063032
