10

O 1.3973613 0.18736422 -0.6239003
C -0.69311804 0.5676318 0.14458306
C 0.5259403 -0.895453 -0.7305503
O 1.2152941 1.7975857 0.98987305
C 0.72022706 0.9540114 0.2963035
O -1.3434836 0.24939923 1.2660048
H 0.54635024 -1.3346598 -1.7304281
H 0.59348094 -1.6181455 0.079947576
H -0.66948605 -0.24473864 -0.798319
H -2.2925663 0.33700463 1.1064855
