9

C 0.90543866 1.1764833 0.38179818
C 0.5303123 -0.7871594 -0.38102928
C 1.5112605 -0.064921804 -0.04176703
C -0.8083632 -1.0840164 -0.41176525
O -0.30518046 1.2754312 0.73510325
H 1.484565 2.1026657 0.40476367
H -0.80284137 0.27079317 0.27431569
H -1.1849657 -1.7078891 0.40020323
H -1.3302256 -1.1813868 -1.3616225
