9

C 1.0173676 -1.7359916 -0.9898542
C 0.3226818 -0.801195 -0.37952834
C -0.34817845 0.10436474 0.21341237
C -1.049491 1.0356522 0.8324
O -0.7117764 2.3407125 0.9662302
H 0.6348763 -2.7466671 -1.0865896
H 0.1427205 2.4939592 0.5480065
H -2.0024827 0.82640034 1.3056029
H 1.9942826 -1.5172358 -1.4096801
