11

N 1.0133227 0.13069658 1.3853848
C -0.5490316 -0.005646914 -0.7190188
C -0.6024853 -0.9948854 0.33590886
C 0.44269606 1.1339589 -0.6341863
C 1.2147042 1.0501022 0.6264533
O 0.6515946 0.028491898 -1.4897041
H -1.5127932 -0.9943778 0.939991
H 0.30034375 2.0884502 -1.1329983
H -1.4540701 0.23961002 -1.2782953
H -0.21901727 -1.9824084 0.090980746
H 0.7147361 -0.6939914 1.8754841
