12

N 0.58287774 0.47656769 1.65431922
C -1.14254570 0.80849362 -0.36473251
O 1.02907309 -1.62051520 0.86255200
N -0.17504954 -0.13661388 -0.48664151
C 0.55168959 -0.52055660 0.74956245
C 0.25384240 -0.72943395 -1.58041812
H -1.69007218 0.81924470 0.56969359
H 1.08916489 0.31192629 2.50825447
H -1.62156846 1.10995610 -1.28599523
H 0.28150889 1.40157184 1.40116300
H -0.28217920 -0.55176935 -2.50253976
H 1.12325859 -1.36887107 -1.52521787
