12

N 1.3667037 0.45316887 1.1092314
C -0.6260182 -0.4565508 -1.5792067
O 1.6038551 -1.3286322 -0.30239406
N -0.40545526 -0.13095589 -0.32339177
C -1.2510047 0.47217098 0.55149275
C 0.97188383 -0.4107961 0.15450831
H 2.3039145 0.35673475 1.4627498
H 0.81807995 1.270564 1.3127532
H 0.19634573 -0.81597704 -2.181155
H -1.6297104 -0.34940752 -1.9669108
H -2.2313597 0.713591 0.16459757
H -1.1172348 0.22609004 1.5977254
