9

O -1.252834 0.03493602 -1.6156108
C -0.5102992 -0.13219959 -0.51440924
N -0.67740154 -1.1491795 0.2867759
O 0.25636452 -0.9770774 1.2954375
C 0.94841933 0.14216404 1.0562037
C 0.52638096 0.7449117 -0.07771836
H -1.8781809 -0.70228046 -1.6699711
H 1.7127546 0.38466868 1.7815495
H 0.87479603 1.6540563 -0.54225683
