10

O 0.66137165 -1.3868976 -1.6729498
C -0.47979555 0.7501738 0.8996172
C 0.4150144 -0.6341175 -0.76060444
C -0.9260091 -0.15196513 -0.20885628
N 0.7942692 0.81452477 1.0122827
N 1.33534 0.001802797 0.042567857
H -1.1122106 1.3157544 1.5705379
H -1.5262799 -1.0003278 0.13410655
H 2.3363929 -0.073868975 -0.030809259
H -1.4980925 0.3649212 -0.9858924
