11

N 0.77089244 0.07546771 1.1170969
C -0.51490986 0.45502064 0.5113963
O -0.6004509 1.8340284 0.30473584
C 1.2542778 -0.838011 0.38394114
C -0.58864623 -0.410315 -0.77512234
O 0.5811892 -1.2463874 -0.7180772
H 2.1921632 -1.3613405 0.5491511
H -1.3335056 0.22214349 1.1991185
H -1.4656084 -1.0591683 -0.82591796
H 0.24147895 2.122594 -0.07000829
H -0.53688055 0.20596813 -1.6763139
