11

N 0.28564014 0.78856059 1.06979338
C -0.14123338 -0.86810142 -0.58491925
O 1.12939946 -1.06183190 0.06218726
C 1.23519468 -0.04132867 0.94629387
C -0.76767593 0.35342488 0.13952279
O -1.17803361 1.39366846 -0.69784696
H 0.03147064 -0.66081642 -1.64408735
H -0.71694352 -1.79040392 -0.48211180
H -0.38290320 1.84572129 -1.00762917
H 2.17006626 -0.03044553 1.50009329
H -1.66498145 0.07155265 0.69870382
