11

O 0.75206536 0.92296539 1.99413083
C 0.04621089 0.19633680 -1.45659682
N -1.28714561 -0.29825979 0.62059099
C -0.53623137 -1.35118446 0.53336712
C -0.00323301 0.11769005 -0.08973512
C 0.96361105 0.77073163 0.80765554
H -0.74797571 -0.24209828 -2.05458681
H 0.88944757 0.65259027 -1.96205620
H -0.68368629 -2.11079123 -0.23952649
H 1.88307031 1.15316555 0.32700661
H -1.27613318 0.18885390 1.51974985
