11

O -0.61198586 0.32327732 2.2169778
C 0.38247845 0.7356384 -1.2144563
N -0.98346865 -1.0722717 -0.11772292
C 0.011905964 0.7535628 1.2676287
C 0.22043802 -1.5325615 0.019654574
C -0.042723898 0.12690562 -0.06311436
H 0.8001475 -1.912345 -0.82640177
H 0.9056496 1.6844509 -1.1870465
H -1.5457876 -1.0218285 0.73500246
H 0.62725323 1.6691976 1.3427624
H 0.23609336 0.2459743 -2.1732838
