10

N -1.25177011 0.40531775 -0.33389509
C -0.05698196 0.70976480 0.34185284
N 0.17358537 1.86358328 0.80754172
O -1.08793030 -0.86696075 -0.95157393
C 0.04252470 -1.43437431 -0.46432145
O 0.40699329 -2.54399982 -0.72612855
N 0.64211522 -0.48777734 0.34804141
H -1.48223516 1.06488368 -1.06684122
H 1.08226354 1.92743048 1.25411451
H 1.53143537 -0.63786772 0.79120974
