10

N -0.16377784 -0.8275086 -0.24449515
C -0.06483169 0.1009782 0.78068984
N -0.1512713 1.342977 0.12738349
O -0.08753261 -0.73241204 -2.5730822
C -0.08848252 -0.22586627 -1.4886194
O -0.003172875 1.1090006 -1.2691784
N 0.049880512 0.012201007 2.0377834
H 0.11380669 -0.9493873 2.3547394
H -0.17892508 -1.8250434 -0.12403561
H 0.57430667 1.9950607 0.3988146
