10

N 0.2263183 1.7669166 0.39574558
C -0.20239799 0.47976127 0.16380505
N -1.4034364 0.04941752 0.36079788
O -1.3356774 -1.3404082 0.102322124
C -0.08144485 -1.6976686 -0.26123828
O 0.2829625 -2.810991 -0.5235927
N 0.6440881 -0.5135502 -0.2577775
H 0.7538517 2.1729152 -0.36560416
H -0.5330923 2.3686638 0.685734
H 1.6488283 -0.47505635 -0.30019203
