10

C 0.5322665 0.5116933 1.0062238
C 0.09670297 0.17461199 -1.2893733
N 0.22809613 1.8126184 0.62607884
N 0.5345324 1.1236683 -0.4735371
C -0.5785307 -0.8467148 -0.5365597
C -0.39683118 -0.6246801 0.78715974
H 0.16917992 0.29725602 -2.3606994
H 1.4280368 0.35335797 1.6156698
H -0.8029256 -1.197763 1.6117568
H -1.2105272 -1.604048 -0.9867196
