11

C 0.40762463 0.2253944 -0.23018473
C 1.5312543 -0.72792166 0.28541902
C -0.643554 0.85710114 -0.27496225
C -1.892972 1.5957001 -0.1446516
O 1.5303531 -0.37523618 -0.9986832
N 1.8338865 -1.9968029 0.5163098
H 2.107364 -2.5987258 -0.2567927
H -1.7358394 2.67551 -0.23676974
H -2.594209 1.298005 -0.9318257
H 1.8363442 -2.3647542 1.4517627
H -2.3802526 1.4117296 0.8203786
