11

C -0.9985397 0.7040731 -0.5450799
C -0.20794901 -0.10562156 -0.1578953
C 1.687115 -0.7157606 1.004268
C -1.9509754 1.7154026 -1.0047369
O 0.6065811 -1.0780069 0.21900189
N 2.3167186 -1.8636373 1.2206231
H -2.9639263 1.4780273 -0.6617249
H 1.9981289 -2.7612674 0.86014473
H -1.6779487 2.7013278 -0.61621565
H 3.1525404 -1.8419918 1.7803278
H -1.9617443 1.7674544 -2.0987132
