11

C -1.03841680 1.43405859 -2.28611752
N 0.03613731 -0.57559829 0.29108606
C -0.04217535 0.61072661 -0.33455989
O 0.41408034 1.66343856 -0.01650134
C 0.74108663 -0.74871925 1.54202883
O -0.81372894 0.37951613 -1.52612232
H -1.63682695 0.93849824 -3.09154054
H 0.05587412 -1.10082903 2.31777384
H 1.14836331 0.22206656 1.83152536
H -0.42249179 -1.35913113 -0.14993184
H 1.55809821 -1.46402699 1.42235920
