10

N -0.82626635 0.8716354 1.3548851
C -0.17122734 0.1777926 0.35186473
C 0.35242847 -1.0660399 0.21283753
N 0.98771125 -1.1473941 -1.0268934
C 0.81123716 0.008758332 -1.5525532
O 0.11395807 0.8835509 -0.7729754
H -1.5001091 1.5375828 1.0047401
H -1.2388347 0.26514181 2.049012
H 0.33513778 -1.9032081 0.8943649
H 1.1359646 0.37218025 -2.5152824
