10

O 1.7501594 -1.1338621 1.0117216
C 0.80243737 -0.61292976 0.50074184
C 0.5050198 -0.085436 -0.93026155
C -0.72238064 0.5834845 -0.30818352
O -1.5179176 -0.4665788 0.20067559
C -0.46957278 0.02775744 1.0334069
H 0.29319003 -0.8195746 -1.7083313
H 1.2929622 0.59986246 -1.2596941
H -1.199575 1.5216166 -0.5611489
H -0.7343229 0.38566047 2.021073
