10

O -0.3932214 0.8623233 -1.1736052
C -0.46230444 -0.2668459 0.8707614
C 1.1482834 -0.030198224 -0.73484427
C -0.3009593 -0.48729545 -0.6188949
O 1.7042308 0.84229434 1.5587035
C 0.95454395 0.3552362 0.7637964
H -1.2961293 0.3511712 1.212616
H -0.13339338 0.8256326 -2.108607
H -0.80443585 -1.2503499 -1.2064615
H -0.41661438 -1.2019682 1.4365356
