9

O 1.1854558 0.9040569 -0.37613618
C -0.9175972 -0.020874472 0.5716534
N 0.9447338 -0.24403213 -0.78002846
O -0.51415306 -2.066769 -0.6870127
C -0.21796398 -0.8089346 -0.27635193
C -0.2795835 1.1759406 0.7863058
H 0.28903493 1.3176903 1.7054998
H -0.66667926 2.097367 0.35346007
H 0.17675266 -2.3544445 -1.29739
