9

O -0.04411937 1.00484093 1.77801268
C -0.15124053 0.32270015 -0.48151324
N 0.50099215 -1.20814305 1.27364574
O 0.63637934 -2.06811017 0.43905687
C 0.07688818 0.09028956 0.79087022
C -0.34796185 0.40733103 -1.76500859
H -1.32644589 0.20689991 -2.19732970
H 0.19665452 0.56035414 2.60399971
H 0.45885319 0.68383751 -2.44173371
