9

O -1.2525508 0.03431547 -1.6170033
C -0.50951535 -0.13061216 -0.5151143
N -0.6777303 -1.1478045 0.28643593
O 0.25421438 -0.97744304 1.2947757
C 0.9492404 0.14328335 1.0558465
C 0.5270215 0.7450287 -0.077529445
H -1.8781874 -0.70309687 -1.665898
H 1.7122452 0.38194725 1.7815372
H 0.8752621 1.6543818 -0.5430503
