10

N -0.05888875 -0.55632801 3.35088160
C 0.24537732 -0.36578318 2.25230820
C 0.66398901 -0.18321610 0.86554612
N -0.04021867 0.85380579 0.23202534
C -1.14055842 0.64113681 -2.03761877
C -0.54968130 0.70894852 -0.87590851
N 1.60904458 -0.81219126 0.31104722
H -0.58386117 0.85789923 -2.94143133
H -2.17833479 0.33874268 -2.10438854
H 2.03313213 -1.48301448 0.94753896
