10

N 2.1181428 -0.83312047 2.5220542
C 1.5937561 -0.6840677 1.5029612
C -0.6618588 0.9743581 -0.42958415
N 0.4780114 0.74481523 -0.034540832
C -1.8570267 1.3151991 -0.8279634
C 0.929122 -0.5628659 0.20864779
N 0.8413148 -1.4908471 -0.64420015
H 1.275207 -2.3473177 -0.3077905
H -2.0853937 1.3495381 -1.8864738
H -2.6312745 1.5343086 -0.103110604
