11

N -1.7362027 -0.056963436 0.8266728
C 0.433192 -0.40049243 0.37040663
C 0.045065194 0.94512874 -0.16843495
C -1.2356807 1.1081383 0.14154471
N 1.0281104 -1.3830667 -0.5039489
N -0.83689535 -0.91580725 0.93635345
H 0.47410947 -1.4840411 -1.3488581
H 1.9597632 -1.094241 -0.7748238
H 0.70297474 1.63098 -0.6867177
H -1.9192202 1.9262943 -0.039661672
H 1.084784 -0.2759293 1.2474675
