11

N 0.10192529 0.7118184 -1.7205187
C -0.0056139217 0.16815475 -0.4371018
C 0.89019525 -0.50401986 0.3688005
C 0.1307525 -0.8590975 1.5073828
N -1.1188499 -0.44213092 1.4319308
N -1.1809256 0.18195572 0.23615596
H 1.0460204 0.63183343 -2.074375
H -0.19176112 1.6798239 -1.7731981
H 1.9321927 -0.70275027 0.1659151
H 0.4624303 -1.3974236 2.3852851
H -2.066366 0.53183585 -0.09027665
