10

O 0.7195731 1.7820271 -0.95343834
C -0.57729065 -1.2101607 1.5390592
C -0.11214766 -0.42529634 -0.59834963
O -0.57071257 -1.4661331 0.25127682
C 0.32599133 0.8717432 0.029375605
O -0.10530067 -0.64955306 -1.7700021
H 0.6531599 1.3394549 -1.8130543
H -0.5033098 1.2686489 0.63207984
H -0.97316045 -2.165718 1.9497424
H 1.1431973 0.65498704 0.7333109
