10

O 0.16843344 -1.3936086 -1.4779103
C -0.093985304 -0.20999351 0.57751757
C -0.3348133 -0.21846855 -0.9200001
O -0.4511396 1.1420743 1.1676933
C 0.8082773 1.2692902 1.0629156
O -0.06471602 -1.1778946 1.2779447
H 0.14489521 0.6348221 -1.4053996
H -1.428003 -0.1224267 -1.0515062
H 1.1968874 2.1649823 1.5820407
H 0.054163802 -2.0887773 -0.8132954
