10

O -0.53303136 -1.46338285 -0.33583834
C -0.56360695 -1.71513282 0.95243014
C 0.30124759 0.80202691 0.36479058
O 0.68226170 2.02498872 -0.19076257
C -0.09243684 -0.16881815 -0.71723935
O -0.06399648 0.06823294 -1.88604447
H 1.11485221 0.35147310 0.95248311
H 0.63944477 1.94022461 -1.15523248
H -0.93814566 -2.76303682 0.96144752
H -0.54658919 0.92342411 1.05396574
