10

O 0.49630437 -0.14296445 -1.49352274
C 0.05898212 0.56606282 -0.34709224
C -0.33628142 -0.08255382 0.89719943
O 0.91685926 0.57322331 0.76127758
C 0.76519215 -1.41786202 -1.32445144
O -1.21812735 0.43694279 1.80522300
H 1.09399132 -1.70952523 -2.34746008
H -1.17823630 1.40191163 1.76944880
H -0.31146065 1.53762080 -0.67818856
H -0.28722321 -1.16285595 0.95756584
