10

O -0.47760218 -1.370313 0.5573886
C -0.573973 0.168972 0.60797274
C 0.6023272 0.63676107 -0.13484101
O -0.22048406 0.79073143 1.6703796
C 0.18132448 -1.7082981 -0.49376628
O 0.601462 1.6981826 -0.8832065
H 1.5831217 0.32721618 0.19207615
H -1.5613688 0.34988406 0.13912398
H 0.16671796 -2.823754 -0.50292355
H -0.3015254 1.9306177 -1.1522036
