11

O 0.9353856 1.9488192 0.6486615
C 0.5788108 0.25933006 -0.8918203
C -0.80739945 -1.0407223 0.38136446
C -0.07723887 -1.0463799 -0.7585145
C 0.2004314 0.9480808 0.29678825
N -0.66842914 0.21929957 1.0235351
H -1.4446537 -1.7943361 0.8213799
H 1.5562288 1.1718102 -0.21651323
H 0.60183775 0.80155885 -1.8352469
H -0.8250307 0.38695657 2.0072896
H -0.049942363 -1.8544167 -1.476924
