11

N -1.110132 -1.3593409 0.7508738
C 0.84707737 0.75169516 -1.2237774
C -0.33794573 -0.3741183 0.260292
C 0.86184746 1.5724396 0.007329293
C 0.099436015 0.80314946 0.8894704
O 0.05443496 -0.49010888 -0.9837683
H -1.2735232 -1.3914018 1.7434008
H 1.843471 0.4147548 -1.5287412
H 0.3657234 1.2524354 -2.0696154
H -0.14219451 1.039401 1.9217303
H -1.208195 -2.218906 0.23280588
