10

O 0.34106803 -0.50929296 -2.2346432
C 0.15005437 -0.32383335 -1.0690706
C -0.9075206 0.4842222 -0.265771
C 0.008644728 0.2698381 0.9384538
O 0.07195654 -1.1285272 1.1371831
C 0.9742061 -0.55561566 0.1900844
H -1.9097195 0.059560183 -0.17224334
H -0.96459264 1.5136617 -0.63277566
H 0.20182478 0.9231209 1.7811525
H 2.0340781 -0.73313403 0.32762998
