10

N 0.12725544 -0.77503468 -1.34829236
C 0.03124769 -0.18196229 -0.07891948
C -0.10458970 2.27981413 0.29475551
O -0.07475921 -0.61328115 2.25043233
C 0.01753302 -1.03069203 1.11996082
N -0.12860061 1.08200009 0.07347427
H 0.13910293 -0.09179666 -2.09361880
H -1.05199296 2.82354400 0.32497280
H 0.93705095 -1.37927984 -1.43248650
H 0.10775243 -2.11331147 0.88972134
