10

N 0.60225797 -0.17395 3.3038454
C 0.34948504 -0.029799271 2.1856322
C 0.04029802 0.13444191 0.79774725
N -0.6565229 1.121123 0.28506923
C -0.70036703 0.864115 -1.0527391
C -0.0222033 -0.2908818 -1.3501897
N 0.45183098 -0.7535725 -0.15467113
H -1.2203541 1.5253478 -1.7321285
H 0.15938498 -0.8083957 -2.2790945
H 0.9961903 -1.5884286 -0.0034714187
