9

N 0.017126542 0.55910534 -1.2534841
C -0.22209664 -0.6636851 -0.85906893
C 0.4746069 0.5134021 1.0256943
C 0.009943373 -0.7714242 0.55602115
N 0.36256093 1.2270976 -0.1290016
H 0.5691626 2.2075815 -0.22941922
H -0.6934965 0.02716804 1.2986166
H -0.53337884 -1.4246589 -1.5623045
H 0.015571623 -1.6745864 1.1529464
