11

O 2.034384 -0.50321025 -0.46785733
C -0.5756897 0.7081149 0.24345951
C 1.103259 -0.5890423 0.41673654
O 0.54096615 0.54201174 1.0304098
C -0.55759144 -0.49433833 -0.650292
N -1.3802378 1.6725464 0.27821833
H 0.8826798 -0.6265668 -0.9657779
H -1.1184618 2.3529875 0.9900407
H 1.0591218 -1.466454 1.0776297
H -0.8441691 -0.26334888 -1.6864944
H -1.1442611 -1.3327 -0.26607332
