9

O 2.077346 0.6558408 1.1306632
C 1.0964472 0.35419285 0.50723326
C -0.2757924 0.009738615 -1.2222677
O 0.9792347 0.43425572 -0.86125726
C -0.966981 -0.34059316 -0.13240865
N -0.11358082 -0.12683687 0.9491135
H -1.9703608 -0.7163056 -0.021234132
H -0.5160845 0.015222669 -2.2731743
H -0.31022862 -0.28551498 1.923332
