9

O -1.1219442 0.3656216 -1.0503994
C 0.07345348 -0.089406885 -0.5122173
C 0.491062 0.7432625 0.7034657
O -0.2248541 1.6273696 1.0956783
C -0.005691624 -1.5045552 -0.066095866
N -0.054655667 -2.5936406 0.31503546
H -1.485517 0.9959779 -0.40566292
H 0.8754708 -0.029840024 -1.2617007
H 1.4526763 0.48521113 1.1818967
