9

O 1.2675519 1.5249517 0.35136646
C -0.5306326 0.4128441 -0.9016951
N -0.57803774 -1.2982876 0.27766737
N 0.3827176 -0.5916523 0.86599123
N -1.1531713 -0.7555281 -0.77127725
C 0.42508957 0.50428975 0.12425937
H 1.810124 1.2973706 1.1180251
H -0.8469249 -2.205434 0.6212411
H -0.77671653 1.1114458 -1.6855782
