11

N 1.8469061 -0.110469736 -1.438709
C 0.598377 -0.13336635 -0.86913925
N -0.54936975 -0.24525842 -1.4409416
N -1.5014762 -0.0701886 -0.43102038
C -0.8353479 0.09268492 0.65669966
N -1.2983335 0.19385047 1.9456285
O 0.51390934 0.07467296 0.47219697
H 2.5469835 -0.6432224 -0.9395973
H 1.8035388 -0.35488632 -2.4181948
H -0.8223533 0.89002067 2.50267
H -2.3028338 0.30616274 1.9604071
