10

O -1.41930312 0.09782187 0.47489963
C -0.08546129 0.04502835 0.08985074
C 0.53437791 -0.30901865 -1.17472057
C -0.42332760 -0.32175781 1.44249739
N 0.68740583 1.03773597 -0.54488639
H 1.44406595 -0.90018805 -1.21422871
H -0.48313782 -1.36942509 1.72753188
H -0.12037820 -0.39588119 -2.03741863
H -0.23940314 0.38743834 2.24651273
H 0.10516157 1.72824608 -1.01003804
