10

N 1.23455403 -1.51017913 -0.32776748
C 0.25770739 -0.71994452 -0.25802753
O -0.95734163 -1.02125800 -0.77559723
C 0.31870140 0.64775147 0.39902487
O 1.35944543 1.03507975 0.88992368
N -0.84248684 1.34079068 0.37270219
H 2.04343034 -1.08083888 0.12055415
H -0.87834179 -1.90771653 -1.15938650
H -0.86464910 2.25862942 0.78826295
H -1.67101916 0.95768587 -0.04968902
