11

N 2.260129 -0.64288896 0.7221681
C 1.107145 -0.31714052 0.33956084
O 0.5102652 -0.901444 -0.72333544
C -0.85651803 -0.4977319 -0.7546395
C -0.8361827 0.8038519 0.03686841
O 0.29010236 0.6198181 0.8947776
H 2.5478272 -0.061347168 1.502165
H -1.4726491 -1.2653925 -0.27287447
H -1.1611676 -0.37660408 -1.7959977
H -0.66488683 1.6777627 -0.6010787
H -1.7240644 0.9611164 0.65238595
