11

C 0.97854796 1.51404252 0.20263812
C -1.09621657 0.84514722 -1.04956424
C 0.10244929 0.61431529 -0.16022643
C 0.38613053 -0.82121858 0.24311907
O -0.03575641 -1.74331040 -0.42153707
N 1.12775225 -0.96825221 1.36980083
H 1.35689182 -1.90418439 1.66930306
H -2.02128331 0.68588720 -0.48680075
H 1.36061096 -0.18458660 1.95499334
H -1.06050462 0.10914064 -1.85643945
H -1.09862194 1.85301921 -1.46528644
