11

C 0.59488326 0.7319255 2.2430217
C 0.30295765 0.1664627 0.9293355
C 0.072506726 -0.31468236 -0.15095966
C -0.14355616 -0.96813613 -1.4422264
O 0.3289855 -2.0526876 -1.712537
N -0.93132496 -0.2573248 -2.302384
H 0.45909962 -0.023777608 3.0220442
H -0.062070172 1.5776381 2.4663403
H 1.6306368 1.079139 2.2844234
H -1.0381014 -0.6251642 -3.236662
H -1.2140169 0.6866073 -2.100396
