12

N -1.17019740 -0.62204622 0.53314800
C -1.28565353 -0.53094568 -0.77537065
N 0.50225856 -0.02866137 2.09553042
C 0.08720029 -0.20147810 0.82333169
C -0.05617042 -0.05450564 -1.41461621
C 0.33217098 1.31476718 -0.97079143
N 0.86648222 0.13120935 -0.23041286
H 0.35369739 -0.56546486 -2.28359158
H -2.21859536 -0.77334354 -1.27179787
H -0.03328020 -0.49472502 2.80986388
H 1.49660533 0.04355365 2.24483862
H 1.12548209 1.78164030 -1.56013194
