12

N 0.8190132 0.0890977 -0.37732804
C 0.29956654 1.4162792 -0.8281301
N -1.1172017 -0.5927086 0.6641589
C 0.21227056 -0.33480033 0.75426936
C -1.4586096 -0.2880274 -0.57053155
C -0.3198555 0.17285225 -1.3693355
N 0.8701957 -0.4004651 1.9304714
H 0.42383733 -0.9238145 2.6661065
H 1.876617 -0.44009545 1.8882927
H 1.0205245 1.8982213 -1.493402
H -2.4883406 -0.36684328 -0.90071225
H -0.13801736 -0.22969593 -2.36386
