11

N -0.94263506 1.13008644 -0.95157189
C 0.02097642 0.19619488 -1.24913849
C 0.23796455 1.21850252 -0.20683845
O -0.15208895 -0.80268970 0.82543201
C -0.20750975 -1.16408367 -0.55908653
C 0.10018782 0.56739279 1.17593791
N 1.27600205 0.72094816 -0.95946527
H -0.75344073 0.96847608 1.72695833
H -1.19116237 -1.58520063 -0.77780655
H 1.02100841 0.62441477 1.76178548
H 0.59069743 -1.87404123 -0.78620642
