11

N 1.0595818 1.1961302 -0.71769077
C -0.041450016 0.47704145 -1.1704669
C -0.05635502 1.2545581 0.084057644
O 0.050461516 -0.9835334 0.6155449
C 0.06345471 -1.0202949 -0.81590486
C -0.020325912 0.28974667 1.2768852
N -1.1929176 1.06967 -0.70985836
H -0.7970961 -1.5951005 -1.1649052
H 0.8690042 0.42151827 1.8982608
H -0.9369914 0.34573805 1.8682923
H 1.0026338 -1.4554739 -1.1642147
