10

O 1.2390652 0.5105862 -1.7558281
C 0.47126237 0.08524777 -0.73782957
N -0.06323315 -1.0919605 -0.60774255
C -0.7481181 -1.0233371 0.59322697
C -0.6111383 0.20266679 1.1664723
N 0.19098961 0.9229851 0.28548455
H 1.3005328 -0.2418284 -2.361576
H -1.3005342 -1.8743895 0.96670157
H -0.9867655 0.6349709 2.0809507
H 0.5079394 1.8750587 0.3701399
