10

O 0.13816117 -0.4721176 -2.1655421
C 0.014794366 -0.16738668 -1.0039878
N -0.75602007 0.7138721 -0.36233136
C 0.40808913 -0.1760756 1.492392
C -0.5221876 0.6976291 1.0631722
N 0.8007861 -0.79641634 0.11339736
H -1.4099408 1.2950059 -0.86248106
H 0.63564235 -1.804055 0.12189788
H -1.1090742 1.3816047 1.6605183
H 1.7997495 -0.67206067 -0.057035044
