10

O -0.3674329 1.9513705 0.6113509
C 0.154843 -1.452665 0.10700816
N -0.17663456 -0.34479195 0.89833647
C -0.06711741 0.74447143 0.13486551
C 0.5762247 -1.0437416 -1.1333871
N 0.42755556 0.45732787 -1.0647854
H 0.08528305 -2.447422 0.5263074
H -0.39169532 -0.32782847 1.883092
H -0.11061895 -0.13506405 -1.8944048
H -0.13040718 2.5983436 -0.06838344
