10

O 1.889874 0.8281266 0.57925063
C 0.7076355 0.3240303 0.14870025
C -0.43043175 1.039312 -0.17220192
N -1.3252677 -0.123624325 -0.4141324
N -0.72146714 -1.3574783 -0.40252182
C 0.51141703 -1.0694946 -0.049988966
H 1.7861023 1.7870151 0.62439215
H -2.1698623 -0.03168208 -0.96535045
H 1.2409029 -1.8604943 0.08002596
H -1.4889033 0.4642895 0.57182646
