10

O -1.180232 -1.8556634 -0.08138847
C 0.14186877 -0.11010674 -1.1364276
C -0.46540895 -0.7050591 0.037013922
N 0.60467887 1.1058357 0.5506616
N 0.79553205 0.97711647 -0.8999375
C -0.21770753 0.016302466 1.1628437
H -1.4748366 -2.0832925 0.8107822
H 0.08842188 -0.5011962 -2.147084
H 0.17557777 2.0160623 0.72676766
H 1.5321057 1.1400008 0.9767684
