12

N 0.60410625 -1.0394583 -0.5196786
C 1.0995046 0.0509712 0.4644332
C 0.5420372 0.32251704 -1.00307
C -0.4707305 0.22701423 0.8420846
N -0.65802133 0.9485983 -0.44052485
C -0.60847557 -1.1934643 0.35080555
N 1.9155232 0.88660383 0.0005211816
H -0.3991283 -1.9639379 1.0954599
H -1.5220705 -1.4134554 -0.20535561
H 0.9068064 0.5721773 -1.9919622
H -0.93754363 0.6615316 1.7208673
H -0.47200748 1.9409022 -0.31358066
