12

N -1.27392625 -0.90423069 0.66016615
C -0.65139804 0.08930279 1.46708701
C 0.21678359 0.99657307 0.71796777
C 1.13385466 0.56848410 -0.38336012
N 0.32275974 -0.42378007 -1.09017568
C -0.79307149 -1.02547807 -0.51103141
N -0.90133805 1.47709849 0.94400431
H -0.53511412 -0.14660951 2.52316973
H 1.40056326 1.38404221 -1.05637590
H 2.04653847 0.11311964 0.02084334
H 0.32468919 -0.41725479 -2.09267227
H -1.29034122 -1.71126677 -1.19962279
