11

N 0.97192806 -0.39868078 1.0649098
C 1.3006927 -0.26372746 -0.2806101
C 0.55239046 0.18606625 -1.2905927
N -1.0357437 -0.344261 2.4262748
C -0.80428964 0.76411074 -1.1692439
C -0.073715806 -0.41988438 1.6840204
O -1.473401 1.0565104 -2.1344216
H 0.9760983 0.1884036 -2.2924974
H -1.5666558 -1.1875786 2.6025136
H 2.329684 -0.5550332 -0.46151254
H -1.1769879 0.97407424 -0.14884011
