11

N 1.37508584 -0.47590944 0.34680329
C 0.39161281 -1.27962922 -0.22200048
C 1.38144337 0.63462780 0.84054941
N 1.54324506 1.76901039 1.25183339
C -1.35290131 0.43636543 -0.75968524
C -0.81993359 -0.94101164 -0.66902276
O -2.49806533 0.66926159 -1.07454125
H 0.73051657 -2.30608067 -0.31116038
H 1.36410208 1.94872130 2.23148850
H -0.64524904 1.26726525 -0.57789880
H -1.46985638 -1.72262055 -1.05636590
