10

C -1.1613464 0.063105255 -0.5714047
C 0.34974763 0.18844423 -0.5101835
O 1.0036094 0.533845 -1.4653158
C 0.9896568 -0.15250374 0.8206346
H -1.5036154 0.17157254 -1.6029121
H -1.4895627 -0.898494 -0.16366133
H -1.6157497 0.84830785 0.04367423
H 0.9161632 -1.2330548 0.9896931
H 2.043505 0.13639845 0.81374806
H 0.46759227 0.34237918 1.6457275
