10

C -0.048834436 -1.1250149 -0.04105659
C 0.65004575 1.1549566 0.006124286
O -1.5331031 0.620315 -0.8669025
C -0.5767835 0.4325855 -0.05843236
H -0.973934 -1.6879814 0.07700305
H 0.88768715 1.9315307 -0.71737796
H -0.82000875 0.42499816 1.0709773
H 0.6553345 -1.3527138 0.7589576
H 0.38723716 -1.3290845 -1.018853
H 1.3723592 0.93040854 0.78955996
