10

C -0.18906148 0.8893807 0.92151463
C 0.15723827 0.40912366 -0.47346005
O 0.45132533 1.1762959 -1.3596555
C 0.11337761 -1.0893755 -0.691332
H 0.7006102 -1.6088121 0.073312916
H 0.57858014 0.55230236 1.6265625
H 0.49196967 -1.3326476 -1.6858255
H -0.9207309 -1.4413368 -0.60083926
H -0.24087444 1.9812256 0.93807393
H -1.1424344 0.4638437 1.2516483
