12

O 0.9363837 0.9741731 1.3214457
N -1.1280204 -0.7813216 -0.05106248
C 0.6593212 0.3187674 0.026627911
C -0.7433379 0.5453508 -0.56416136
N 1.8370723 0.9770209 -0.082886636
C 0.2873268 -1.1627173 0.15705088
H -1.621495 -1.3665965 -0.71551996
H 0.5419477 1.8649515 1.2876493
H 0.50542194 -1.6453356 1.1143888
H -0.67694455 0.63226396 -1.6576765
H 0.73921 -1.7401121 -0.66017956
H -1.3368858 1.383555 -0.1756762
