12

O 0.87471485 1.9645292 -1.2830594
N 1.01289 1.4096375 -0.0048403516
C 0.31347 0.36539066 0.105687946
C 0.13446401 -0.60881954 1.2420459
N -0.56431127 -1.5138438 0.29489687
C -0.5864997 -0.4779948 -0.7701917
H 1.4658992 2.7258358 -1.239467
H -0.4908473 -0.21737008 2.055154
H 1.050656 -1.0308661 1.6677293
H -1.4851825 -1.793794 0.6088538
H -1.565896 -0.017800797 -0.95351434
H -0.1593571 -0.80490375 -1.7232952
