10

N -0.25850958 -0.2645116 -0.8607443
C -1.6348662 -0.11419653 -0.575424
C 0.55532366 1.0041109 -0.680089
O -2.2468069 0.9050197 -0.75836504
C 0.70752823 0.062586464 0.18041813
N 1.146316 -0.6091806 1.2706064
H 0.7046638 1.9263036 -1.2050909
H 1.1582121 -1.6156318 1.1563483
H 1.9747423 -0.23714897 1.7144141
H -2.1066031 -1.0573511 -0.2420739
