11

O -2.703572 -0.43366936 -0.9726095
C 1.5433004 -0.48405665 -0.46726695
C -2.0227237 0.10169133 -0.13847366
C -0.53386855 -0.003922224 -0.081791304
N 1.5576074 0.3522641 0.72021747
C 0.3277697 0.63031936 0.93787426
N 0.17441387 -0.66310555 -0.9169325
H 2.1359098 -0.019619873 -1.2638453
H 0.0009578102 1.2532383 1.7680496
H 1.9919143 -1.4595026 -0.24743436
H -2.4717088 0.72636324 0.66221225
