11

O 2.769904 -0.41077554 0.11956883
C -1.2160406 0.7836918 0.89424527
C -0.7702582 -0.29421756 -0.8652322
C 1.7881123 -0.53986883 -0.56532514
N 0.19844559 0.6765407 0.9084139
C 0.44129828 -0.05859586 -0.19870079
N -1.7961885 0.22091542 -0.18921949
H 1.8258222 -1.0520219 -1.5501497
H -1.711842 1.501012 1.5436658
H -0.611504 0.012115367 1.6957973
H -0.9177491 -0.8387956 -1.7930638
