11

C -0.92046691 0.34483126 -0.52778386
N -1.00604411 -0.77375777 0.41442150
C 0.50356897 0.60088115 0.01594337
O 1.50710142 0.54532667 -0.95547512
C 0.29186667 -0.69269354 0.83032552
O 0.99674305 -1.38947559 1.51823397
H -1.65403088 1.13378002 -0.34957241
H -0.90887030 0.04967746 -1.58032971
H 0.57417097 1.49526053 0.64875549
H -1.68845818 -1.50985264 0.52085597
H 2.30441902 0.19602237 -0.53537459
