11

N 0.9682363 0.46216208 -2.1415071
C 0.5785833 0.23907696 -0.9572112
C -0.8005199 -0.11945098 -0.6440185
C -1.1507053 -0.34292364 0.62658083
C -0.12559046 -0.2082367 1.6418228
N 1.0969253 0.10706973 1.4171611
O 1.4632064 0.33465227 0.10185467
H 1.9591229 0.69920313 -2.1678789
H -1.4812572 -0.18458316 -1.4832968
H -2.162083 -0.6130812 0.91565263
H -0.34591854 -0.37388855 2.6908405
