11

N 1.09008399 0.59009077 -2.35487167
C 1.51774844 0.23919468 -1.05154899
C 0.76577503 0.00964612 0.05016891
C -0.67410421 0.06156220 0.18348049
C -1.26342245 -0.20009083 1.34329837
N -1.80257801 -0.33870009 2.42401926
O -0.11042490 0.66650245 -2.55329724
H 2.60009927 0.16557470 -1.00099167
H -1.29060335 0.31613373 -0.67335046
H -2.15499065 -1.25761098 2.68374651
H 1.32241663 -0.25230283 0.94934652
