10

O -1.22792810 -1.26261312 1.31956134
C -0.30768865 0.89011862 0.66099649
C 0.24092175 -0.98611803 -0.61402030
N 0.83101482 0.32243256 -1.04541784
N 0.45141920 1.46595121 -0.21124339
C -0.45760080 -0.53583238 0.46666953
H 0.55964468 0.54376891 -2.00521392
H 1.85087456 0.26934781 -1.04448892
H -1.17263474 -2.18117430 1.02259670
H -0.76802262 1.47411870 1.45056033
