10

O -0.38127154 1.638318 -1.2185539
C -0.1700159 0.60628855 -0.35597122
C 0.5155785 -0.5737459 -0.5342411
N 0.40809464 -1.2370414 0.6504112
N -0.28906843 -0.5687001 1.5681922
C -0.6502866 0.55830956 0.97069085
H -0.03457036 1.400127 -2.0859091
H 1.0525407 -0.98356974 -1.3769218
H 0.7882914 -2.137421 0.8860601
H -1.2392923 1.297435 1.4962428
