12

O -0.8458784 -1.2821927 -0.9757649
C 0.7148042 -1.2327067 -0.37694618
C 0.77249086 0.19090469 0.09607239
C -0.14367856 0.6895131 1.1445351
N -0.35900488 1.0844357 -0.2607648
H 0.19504268 1.457227 1.8339664
H -1.127842 -0.33865836 -0.8492631
H 1.2064089 -1.2543222 -1.3688297
H -0.091589324 2.0488415 -0.4323377
H 1.7672627 0.6437804 0.10493197
H -1.1957688 -2.01839 -0.46539313
H -0.892247 0.011567287 1.5497938
