12

O 1.4085944 -1.2728406 0.042485297
C -0.08649493 0.7553627 -0.119472876
C -1.303431 -0.08611254 -0.2862952
C 1.3074565 0.3827782 -0.5139542
N -0.6362904 0.010153077 1.0142546
H -1.2165372 -1.0560265 -0.77050304
H 0.7068642 -1.2195053 0.754176
H 2.0982969 -0.5459261 0.32416865
H -1.1395761 0.5885571 1.6832348
H 1.383229 0.20712286 -1.5948349
H -0.25213537 1.8352853 -0.13259496
H -2.2699761 0.4011516 -0.40066415
