10

O 0.27534345 -1.69736312 -0.08596107
C 0.15836595 0.23365780 -1.43611342
C -0.12659888 0.39961397 0.95484643
O -0.11357996 -0.23804138 2.17712101
C 0.09408561 -0.34535773 -0.13010242
C 0.21115875 0.73122755 -2.53028281
H -0.67982827 0.23906261 2.79508201
H -0.26297027 1.47438835 0.91633665
H 0.26135633 1.17092821 -3.50060011
H 0.18266727 -1.96811631 0.83967351
