10

O -0.32030034 -0.48405036 2.114834
C 0.21939205 0.99742013 -2.4369311
C 0.24579716 0.4259364 -1.378499
O 1.0751395 -1.3435332 -0.056906953
C -0.45148405 0.19162151 0.92026824
C 0.26898912 -0.24378411 -0.11517313
H 0.98319274 -1.7185906 0.8316724
H -1.1351999 -0.39937416 2.6236658
H 0.1996354 1.5044707 -3.3749511
H -1.0851619 1.0698838 0.8720204
