11

N -0.9765834 -0.4723472 -1.4988141
C -0.7448812 0.3876773 0.9100675
C 1.3732642 0.1775707 1.0641025
N 0.325683 0.540418 1.7565373
C -0.33162773 -0.088297404 -0.3079452
N 1.0336903 -0.22065115 -0.19390726
H -1.9134104 -0.80446327 -1.3075892
H 1.6320261 -0.62115103 -0.8977695
H 2.3975189 0.18220653 1.41514
H -1.0437981 0.29179776 -2.162701
H -1.7518818 0.6272397 1.2228792
