11

N -0.17329847 0.45701493 1.80129099
C -0.77548428 0.75370700 0.60325317
C 0.77254977 -0.39841073 1.51464047
N 0.80614611 -0.68652376 0.18334719
C -0.18737478 0.05230175 -0.41804169
N -0.41880775 -0.07736273 -1.80052377
H -1.59761644 1.45340248 0.54147566
H 1.46218037 -0.84121083 2.22223091
H 1.37828843 -1.36870380 -0.28687775
H -1.39591280 0.07559823 -2.01588750
H 0.12932990 0.58018755 -2.34490774
