11

C 0.5687174 -0.19771391 0.90211594
N -0.3872853 0.8338545 0.58818704
C -0.56196976 0.7223685 -0.88376915
C -0.15218137 -0.6735672 -1.3256372
N 0.4393897 -1.1340833 -0.2539516
H -1.583115 0.98004174 -1.1828437
H 0.36154082 -0.68948686 1.8603202
H 0.8866662 -2.0417755 -0.23663795
H 1.5981861 0.18268175 0.9146065
H 0.10496509 1.4272319 -1.4009215
H -1.2749138 0.5904482 1.0185314
