11

C -0.056979213 1.5171179 -0.65319157
N -0.37996072 -0.43830684 0.77792406
C 0.5997559 -1.055146 0.048284415
C -1.1011488 0.59056944 0.1089845
N 1.0039455 0.9523055 -0.9087522
H -1.7158197 0.17704311 -0.69747794
H 1.3442345 -1.5945566 0.6354963
H -1.7359601 1.1514609 0.79636276
H -0.06956585 -0.1677099 1.7035847
H 0.26526758 -1.5534269 -0.8607542
H 1.8462311 0.42064923 -0.9504609
