9

O 1.7433357 0.54013056 -1.6417121
C 0.88843304 0.35404888 -0.8192551
N 0.2663298 -0.81173277 -0.44455805
C -0.6710374 -0.5570241 0.5564219
C -0.61600333 0.75714326 0.785153
O 0.32356158 1.3355186 -0.036608808
H 0.4888204 -1.6983086 -0.861829
H -1.2778279 -1.3290403 1.0025146
H -1.145612 1.4092644 1.4598734
