9

O 2.0763934 1.2382858 0.25560024
C -0.9439402 -0.15026492 0.667685
N 0.37922755 0.17097871 -1.1013262
C -0.8508526 -0.1942025 -0.715058
C 1.1597439 0.48127228 0.059457164
O 0.17082755 0.19419831 1.2192128
H -1.5749766 -0.5881973 -1.4149654
H -1.7620946 -0.4581539 1.3104757
H 1.3456719 -0.6939164 -0.28108132
