10

O 2.230275 1.1156548 0.44876632
C -1.2125756 -0.06409749 0.16676393
N -0.6300462 -0.24774757 1.2764411
C 1.7223371 0.13128927 -0.019876907
C -0.39913455 0.07157744 -1.0774641
N 0.86228997 0.1456731 -1.1293672
H -1.2987337 -0.3280196 2.0421717
H 1.9825178 -0.90168285 0.2818018
H -2.3001845 -0.018758439 0.028300893
H -0.95674527 0.09611126 -2.0175369
