9

O -0.73301725 -0.57931641 -0.11298281
C -1.01313935 0.19051115 -1.21009503
C 0.31273449 -0.19675702 0.71280240
N 0.23301478 -0.17344727 1.96450040
C 1.58659450 0.04138700 0.05618935
N 2.62172309 0.19060063 -0.43547117
O -0.48600823 1.22774539 -1.46974045
H -0.71361433 -0.39284214 2.27183662
H -1.80828750 -0.30788132 -1.77703931
