9

O -0.36283988 -0.0055111046 0.8683339
C 0.37459457 0.9558611 -1.2116768
C 0.85540116 -0.508151 1.2398174
N -1.6830934 -0.16518809 -1.0409377
C -0.61569625 0.18329002 -0.48158735
N 1.1230536 1.607185 -1.8041903
O 1.6962541 -0.8891901 0.48555395
H -2.2862659 -0.6672158 -0.3906705
H 0.8985918 -0.51108 2.3353572
