12

N 1.2330502 -0.16079229 0.51504076
C -0.7777039 -0.64357805 -0.43619943
C 1.0524229 -1.5834174 0.2522405
N -1.2077174 2.38785 -0.19567907
C 0.15205525 0.38863686 0.11117961
N -0.26014292 -1.8026175 -0.35875607
C -0.13334616 1.8332466 0.17932868
H -1.9015613 1.7302773 -0.5591376
H 1.1182914 -2.165912 1.1797589
H 1.8293258 -1.962123 -0.42357603
H -1.7689029 -0.47424412 -0.8592389
H 0.6642292 2.4526742 0.5950387
