12

N -1.341823 -0.89654046 -0.020630645
C -0.7572443 0.14544748 -0.6051073
C 0.4095807 -0.34381354 -1.3744566
N 0.57093924 1.0540307 0.9785088
C -0.4409685 1.3178488 0.21257068
N 1.4062978 -0.5656836 -0.59432507
C 1.0909256 -0.25115925 0.7539325
H -2.0639005 -0.59455216 0.6377813
H 0.4268784 -0.57042915 -2.4343708
H 1.8169836 -0.5847813 1.4885274
H -0.92392594 2.2889462 0.21024966
H -0.19374286 -0.999314 0.74732
