12

N -0.31536545 -1.59002795 0.90452527
C 1.10809610 -1.44951843 0.59114244
C 0.16717849 0.33444068 -0.21615059
N 1.32532700 -0.19842257 -0.12518311
C -0.11445299 1.62875060 -0.86302083
N -1.25200317 2.17873867 -0.94036425
C -0.85564597 -0.54185549 0.42842576
H 1.42868388 -2.30966300 -0.00977254
H 1.68503009 -1.47350810 1.52414870
H 0.74845881 2.13512688 -1.30074006
H -1.99740780 1.64002665 -0.49305605
H -1.92789857 -0.35408756 0.50004551
