9

O 1.3422544 0.6282702 -0.46114552
C 0.63060004 -0.83926284 -0.3570545
C 0.04702932 0.60296184 -0.72182924
O -0.09336019 -0.6633554 0.9131044
C -0.74201745 0.6158613 0.57653254
N -0.22342683 -0.5336423 -1.42341
H -0.45938626 1.3716459 1.308085
H -1.8173002 0.4947181 0.46108365
H 1.3156072 -1.6771965 -0.29536632
