9

O -0.61265302 -1.48339531 -1.58827599
C -0.18925170 -0.79663218 -0.69859271
C 0.96458609 -0.11452110 0.97133838
O 0.17600408 0.95319744 0.78577402
C -0.65769481 0.61573213 -0.32636344
N 0.84684051 -1.13551798 0.20984597
H -0.49261159 1.33348688 -1.13318701
H -1.70420732 0.64069182 -0.01412220
H 1.66898789 -0.01304170 1.79358299
