9

O -1.1196886 0.36692384 -1.0497586
C 0.07511639 -0.090772934 -0.5133979
C 0.4859973 0.741417 0.7026846
O -0.2297254 1.6288625 1.0912029
C -0.0017976469 -1.5062941 -0.06733393
N -0.050554927 -2.5947945 0.3157089
H -1.479633 1.00132 -0.40483275
H 0.877128 -0.03022589 -1.2637603
H 1.443158 0.48356408 1.1894871
