10

C 0.04827565 0.95689101 -0.13903329
O -1.59500114 -0.71179029 -0.57644273
C -0.37582401 -0.31161566 -0.13455572
O 1.25842764 1.26658341 0.47793713
N 0.39193190 -1.38810860 0.28705062
H 1.89342745 1.48122945 -0.21830190
H -0.54663069 1.77361911 -0.53980184
H 1.19861208 -1.06569291 0.80409514
H -2.12456563 0.07494308 -0.75818316
H -0.14865323 -2.07605875 0.79723574
