10

O -0.84900330 -2.12759826 0.25102285
C 1.13616321 0.77888187 0.20767575
C -1.29645951 0.10524324 -0.50214229
N -0.89223157 1.31742159 -0.67680845
N 0.38628331 1.68410423 -0.30813566
C -0.49653561 -0.98133260 0.07890313
N 0.76694798 -0.51918650 0.41936548
H 1.40789807 -1.17884318 0.84043741
H 2.14522824 1.05232345 0.50328276
H -2.30829058 -0.13101381 -0.81360118
