11

C 1.0122577 -0.8096352 -1.1411728
C 0.21675548 -0.16462886 -0.05930431
C -0.8830802 0.6297893 -0.053145107
C -1.0937606 0.8835714 1.3304117
N -0.20204288 0.2945762 2.075767
O 0.6274565 -0.36947602 1.2040409
H 1.0082417 -1.8994462 -1.0343242
H 0.5865393 -0.5532194 -2.113867
H 2.0523114 -0.470932 -1.1144352
H -1.4567591 0.98219365 -0.8956177
H -1.8679194 1.4772071 1.8016466
