11

C 1.1474597 0.39193398 -1.0353521
C 0.07391125 0.079048045 -0.04635658
C 0.13988839 -0.4079108 1.2079186
C -1.9983126 -0.046510745 0.8024689
N -1.2831509 0.34074092 -0.29379907
O -1.1123127 -0.5509233 1.714506
H 0.9660448 -0.66435677 1.8554996
H 1.0360689 -0.23100755 -1.9296781
H -2.1884139 -0.5585934 -0.32751954
H 1.0853076 1.4384491 -1.3450669
H 2.1335092 0.20913035 -0.60262084
