10

O 0.8957713 -0.40545464 -1.6920269
C 0.91767323 -1.2335616 1.6411288
C -0.6198229 1.0112225 -0.61387485
N 0.48766458 -0.7768021 0.5473244
N -1.8460108 1.7444582 1.3461452
C 0.29187408 -0.111045144 -0.51424116
N -1.2752589 1.4107889 0.42901692
H 1.5817776 -1.0694625 -1.5340477
H -0.7568361 1.548812 -1.5408993
H 0.3231679 -2.1189554 1.9314746
