10

C -0.31791726 -0.0773498 -1.2658043
O 0.8546168 0.65383977 -1.0942346
C 1.1087694 0.4787503 0.25476333
O 2.1706953 0.63173234 0.7866073
C -0.19731972 0.16824512 0.8217684
O -0.32138953 -0.80095345 1.7107563
H -1.1438184 -0.6575832 2.2043703
H -0.1716679 -1.1497588 -1.3743124
H -0.99251074 0.37738785 -1.9933571
H -0.9894581 0.37569007 -0.050557125
