10

C -0.17587357 0.31643128 -0.43150474
O 1.62894074 -1.41205318 -0.92148706
C -0.69377741 -0.16310557 0.92314773
O 0.44947848 1.56473182 -0.38645093
C 0.73208611 -0.91644575 -0.31359095
O 0.16293485 -1.34034738 0.84791832
H -1.74386746 -0.44562027 0.98382168
H 0.94202341 1.69164741 -1.20547966
H -0.90385271 0.22355790 -1.24874191
H -0.39809246 0.48120374 1.75236773
