10

N 0.71204893 1.53049874 0.48984482
C 0.16614600 0.30190421 0.04955686
N 0.04486069 0.06980244 -1.34565874
N -0.58529665 -0.95955223 -1.66221633
N -0.37664341 -1.50976157 1.74307092
C -0.19704522 -0.61671349 0.93661366
H 0.39466292 2.28978276 -0.10047092
H 1.72613495 1.51542950 0.47360487
H -0.55995246 -1.00257252 -2.68683518
H -1.32491576 -1.61881774 2.10249006
