11

O -0.37525964 2.5218897 -0.3185077
C -0.27583814 -1.0189501 -0.38284954
N 0.7820291 0.693752 0.6010467
C -0.2445379 1.3110926 -0.27386525
C -0.8814542 0.19179147 -0.86397964
C 0.7964227 -0.63580424 0.5360937
H -0.5947752 -1.3116857 0.77167994
H 1.2598147 1.2371567 1.3028126
H -1.79036 0.2555162 -1.4416802
H -0.22996795 -1.9714086 -0.9062901
H 1.5539263 -1.27335 0.97553957
