9

O -0.12401873 -0.0021041667 -2.14928
C -0.0823511 -0.04019615 1.3061769
N 1.0537422 0.43345296 -0.46901372
O 1.0598955 0.55498433 0.91211766
C -0.090814866 -0.10133367 -0.8735837
C -0.8527099 -0.48121414 0.27693942
H -1.8136005 -0.9683013 0.32472807
H -0.21959275 -0.07586179 2.3781562
H 1.0694501 0.6805739 -1.7062405
