9

O 0.50383455 1.3824284 1.7079898
C -0.35987875 -0.39770222 -1.0990473
N 0.5895997 -0.7592093 0.83216774
O 0.053543027 -1.3961251 -0.29120636
C -0.23842785 0.82019 -0.55855894
C 0.30123878 0.6169483 0.79264164
H -0.7193898 -0.73823714 -2.0608277
H -0.5093438 1.7738905 -0.981559
H 0.37882417 -1.3021837 1.6584003
