10

N 1.48787890 -0.39204001 1.02557305
C 0.23646316 -0.54679470 0.93497729
C -0.46893608 0.95917851 -0.66433973
N -0.63126182 0.44001150 0.43678751
C -0.38765712 1.54861698 -1.82651023
C -0.47889849 -1.71915100 1.42563308
N -0.99573339 -2.67268492 1.82280414
H -0.92484284 1.14905446 -2.67734415
H 0.23490387 2.42781897 -1.94679380
H 1.92808368 -1.19401013 1.46921276
