11

C -2.11955010 -0.72993168 -0.65127935
N 1.07341192 -0.40726546 0.50588635
C 0.00630896 -1.13760517 0.24664243
O -0.88540687 -0.24644382 -0.34712393
C 1.28320836 1.02472902 0.26390480
O -2.54736079 -1.81413067 -0.40692269
H 1.23767121 1.24924624 -0.80494635
H -2.67441039 0.06962940 -1.16840413
H 0.52381280 1.61595284 0.78192781
H 1.83142524 -0.91673254 0.93327083
H 2.27088985 1.29255178 0.64704422
