17

C -2.20116395 -0.47284331 -0.68732362
N -1.18757206 -0.23754173 0.32079895
C 0.14189223 -0.03699730 -0.00133665
O 0.39918949 -0.44192772 -1.25703366
N 1.06125997 0.42957411 0.74644937
C 0.71086846 0.80900642 2.09863999
C 1.76373050 -0.36765762 -1.65250445
H 0.30666247 -0.02659039 2.68938727
H -1.48541521 0.27285510 1.13367008
H -3.12305922 -0.77650088 -0.18458718
H -1.88586843 -1.28599191 -1.34423579
H 2.39138139 -0.99767092 -1.01475763
H 1.61601548 1.15664875 2.60430104
H -0.01716243 1.63604494 2.13718626
H -2.40818937 0.40958758 -1.30593916
H 2.13278588 0.65944624 -1.59993710
H 1.78464514 -0.72944129 -2.68277801
