17

C 0.6620713 1.9762963 -0.47252554
N 0.20948201 0.6534421 -0.8074469
C -0.07298748 -0.28218475 0.04898121
O -0.43332157 -1.3885012 -0.46565565
N 0.038580596 -0.1524933 1.4047254
C -0.42386615 -1.1953429 2.293601
C -0.20858425 -0.7076142 -2.3163264
H -0.053309716 2.515323 0.16644575
H 0.057712574 0.7885377 1.7582879
H 0.76159376 2.5594177 -1.3972294
H 1.6429235 1.9867297 0.026224758
H -0.47151768 0.19109294 -2.8673286
H -1.5156219 -1.2113228 2.4038174
H -0.10787684 -2.1588027 1.8881764
H 0.031477384 -1.0590833 3.2761497
H -0.93577576 -1.4994678 -2.472724
H 0.8190201 -1.0160263 -2.4671736
