17

C -1.9919498 0.63368326 -1.0824504
N 1.0676991 -0.0028357818 0.85323143
C 0.08861195 -0.10764015 0.04544789
O 0.092639275 -1.0164557 -0.94499826
N -1.092582 0.61082053 0.05318217
C 1.2264059 -1.8751597 -0.97795343
C 0.9708103 0.97517914 1.9158988
H 0.11261481 0.8031456 2.582601
H -2.2194753 -0.38803717 -1.3930547
H -2.9243293 1.1135496 -0.7738414
H 1.0621148 -2.5357294 -1.8320287
H -1.0448847 1.4565545 0.5939538
H -1.5836036 1.1737319 -1.9460648
H 0.90852934 2.0104165 1.5418504
H 1.3034959 -2.45798 -0.054936077
H 2.14859 -1.3036723 -1.1079003
H 1.8753132 0.9104289 2.5270627
