11

C 1.1807939 -0.92987156 0.26007137
C -1.5028976 0.28242895 -0.34545338
O 0.55930156 0.15614103 0.9189715
C -0.20126256 0.95460767 0.05468878
O -2.1220372 0.5605357 -1.3402818
H 0.4442713 -1.607946 -0.19707721
H -0.463447 1.8612126 0.61315787
H 1.7415103 -1.4801487 1.0161073
H -1.8603945 -0.47081596 0.38827735
H 0.35097748 1.2529553 -0.8492597
H 1.873184 -0.5790991 -0.519202
