12

C -0.33828786 -1.0799233 -0.015320986
C -0.53707606 0.08897589 -0.9928857
N -0.18598542 1.2145845 -0.14424011
N 0.74963135 -0.5709449 0.80062294
C 0.7188242 0.8169612 0.8311965
O 1.3553495 1.5391077 1.5645097
H -0.035502017 2.1292696 -0.5427492
H -1.2474203 -1.249131 0.5758137
H 0.14299522 -0.005331734 -1.8494146
H -1.5644649 0.15332617 -1.358958
H -0.070023365 -2.0067408 -0.52903074
H 1.0119598 -1.0301532 1.6604567
