12

C 1.0744033 0.19356743 0.7819258
C -0.31670406 0.59166 0.3505519
N -1.019317 1.547503 0.8104183
N -0.90550596 -0.17038625 -0.6677169
C -0.39465505 -1.2476579 -1.3435755
O -0.99653727 -1.8411117 -2.2102034
H 1.4145932 0.86061275 1.578837
H 1.7843876 0.2624779 -0.0493236
H 1.0944552 -0.83364266 1.1620818
H -0.5163543 2.0462527 1.5413535
H -1.8407773 0.119956575 -0.9283948
H 0.62201154 -1.529232 -1.0259544
