11

N -1.35137274 -1.20986542 0.45279264
C -0.04189888 -1.10130266 0.62692948
C 0.48023762 0.04882510 -0.01090802
N 1.82806557 0.44304384 -0.08868639
C -0.61940657 0.64196870 -0.59406130
N -1.68156163 -0.15370818 -0.28570120
H -2.64042468 -0.02953562 -0.56312657
H 0.49043728 -1.85061393 1.19968416
H 2.33370028 0.24887731 0.76574666
H 1.92921180 1.42345582 -0.31610038
H -0.72698805 1.53885517 -1.18656916
