11

N -1.6234847 -0.9110767 -0.17099877
C -0.08843794 0.5575781 -0.91103375
C 0.4201795 -0.010753571 0.23762278
N -1.3073264 -0.019158944 -1.1060884
C -0.5839367 -0.9178943 0.6512693
N 1.6784937 0.19707187 0.830541
H 2.0885031 1.0818716 0.5618831
H 0.30837423 1.302879 -1.5849116
H 1.6394002 0.14476372 1.8400748
H -1.9502648 0.14876883 -1.8612258
H -0.5815003 -1.5740498 1.5128673
