11

N -0.97799313 -1.7066355 0.59669316
C -0.34733057 -0.53865397 0.15216687
C 0.9665639 -0.16326536 0.26626444
N 1.041838 1.0504606 -0.40093783
C -0.19448528 1.3244885 -0.8748063
N -1.0593204 0.3923858 -0.55682164
H -1.9808011 -1.6032424 0.51466763
H -0.7327725 -1.9652307 1.5428407
H 1.8299413 -0.62428856 0.7193439
H 1.8664948 1.6148478 -0.515777
H -0.41213503 2.2191339 -1.443634
