10

O -2.199455 0.2504764 0.9107164
C -1.0326537 -0.00642294 0.623755
N -0.14772667 0.9777129 -0.04881575
C 0.80465657 0.36019665 -0.7216074
C 0.64594877 -1.0190172 -0.5003634
N -0.416783 -1.2736574 0.25383705
H 1.606143 0.8770003 -1.2353127
H -0.2493308 -0.33175537 1.5282152
H 1.338723 -1.8004234 -0.7847675
H -0.34952202 1.9658902 -0.025657082
