10

O 1.4079257 -1.1720871 1.7347322
C -0.46496335 1.0304139 -0.4681893
N 0.83272135 -1.0505248 -0.49162653
C 0.6081027 -1.3657401 0.8567122
C 0.38602656 -0.028026069 -1.0860243
N -0.91929054 0.8621167 0.70276445
H 0.63449466 0.096458934 -2.1437752
H -1.4883837 1.6551677 1.0007335
H -0.6649441 1.9079167 -1.0954647
H -0.33168936 -1.9356959 0.99013776
