10

O 2.34368434 0.86141808 0.36116655
C 1.60959125 -0.05848856 0.61219749
N -0.90413761 0.94208085 0.61419623
C -1.15160522 0.18368570 -0.37041862
C -0.13362917 -0.81870232 -0.80070003
N 1.04810927 -0.90073403 -0.35898330
H 1.40622036 -0.42643398 1.63646189
H -1.68337088 1.57271928 0.80569860
H -2.08822216 0.18739161 -0.94156910
H -0.44664029 -1.54293663 -1.55804974
