10

C 0.648939 0.46293402 -1.9177749
C 0.5958495 -0.09978623 -0.74497926
N -1.3706537 0.46108627 1.3215564
N -2.1889293 1.2396456 1.1708432
C -0.4371979 -0.4210083 1.480041
C 0.5476975 -0.67892843 0.43274844
H 0.1399381 0.025563944 -2.7710543
H 1.2981728 -1.4267308 0.680153
H -0.43748575 -0.94612515 2.4261963
H 1.2036697 1.3833488 -2.0777302
