10

C -0.02087807 0.85775749 -0.42872384
C -0.62430714 1.30068302 -1.49390576
N -0.83792821 -2.64247348 0.11923465
N -0.19375554 -1.84779914 0.62120908
C 0.59814427 0.41981628 0.64355676
C 0.53466045 -0.93667325 1.18139447
H -1.62567769 1.71913613 -1.44262965
H -0.14117095 1.26526359 -2.46539179
H 1.22594867 1.10890667 1.20449049
H 1.08496429 -1.24461746 2.06076566
