12

O 1.89986322 2.62558609 0.37093495
C 1.54044418 1.28145838 0.36553176
C -0.52905760 0.22850716 -0.35519257
N -1.27158181 -0.54576202 -0.97835166
N -1.32643672 -2.24260017 0.65076772
C -1.74323013 -1.74747749 -0.44045542
N 0.10968129 1.11588107 0.17051415
H -2.50200743 -2.20485416 -1.08403757
H 1.76431542 2.99167193 -0.51128046
H 2.07750565 0.69883739 -0.40093138
H -1.82513640 -3.10856300 0.85557214
H 1.80564054 0.90731532 1.35692839
