11

N -0.6390466 -0.9388759 -2.0642452
C 0.7278278 1.1478088 0.39283296
C 0.21051238 0.00070203975 1.1492562
C -0.0967726 -1.151818 0.4155511
C -0.39976308 -0.8182013 -0.88373303
O -0.54470557 1.1971638 -0.19165225
H 0.9651826 2.0357873 0.99408925
H -0.045472104 0.072358556 2.2042992
H -0.42899564 -2.0928514 0.8277301
H -1.3122797 -0.36820817 -2.5573263
H 1.5635126 0.91613454 -0.28680214
