11

N -1.38689407 2.00314212 -0.95527877
C 0.56282648 -0.82361709 0.01948229
C 0.87541252 -0.43553466 1.39933023
C -1.02855561 0.83525519 -0.85359451
C -0.70424936 -0.42614149 -0.65139763
O 1.49383090 0.21059440 0.29066541
H 1.53659411 -1.05252942 2.00642662
H 0.16093248 0.17778776 1.94576920
H -1.37699229 -1.20132913 -1.00121742
H -1.14582974 2.45310177 -1.83804261
H 1.01292449 -1.74072955 -0.36214251
