11

O -1.4127339 -1.4597439 -1.6821245
C -0.8469187 -0.7910692 -0.9127209
C 0.57544076 -0.9519644 0.8194516
C -0.78712595 -0.4756338 0.5817736
N 1.4602149 -0.026992612 0.5416689
C 0.69387037 1.0252651 0.05395802
N -0.5844755 0.9117324 0.60671717
H 0.18742491 0.25854832 -1.1460384
H -1.3135537 1.4919654 0.22064093
H 0.8646533 -1.9716731 1.045506
H 1.1632036 1.9895658 -0.12883231
