11

O 2.48728192 -2.12998926 -0.43970894
C 0.03480312 0.31673988 -1.21728781
C -0.89613907 0.94606370 0.68339267
C 1.61005032 -1.37566324 -0.28134914
N -0.14149188 -0.27871260 1.03631435
C 0.56967753 -0.56779289 -0.17576403
N -0.82223345 1.14311918 -0.76847188
H 0.32520833 0.28261367 -2.26514932
H -0.45115235 1.82723544 1.16097342
H -0.77989674 -1.03625357 1.25427328
H -1.93610774 0.87263965 1.01277703
