11

O 1.316499 1.9650234 2.3070073
C 0.3815848 0.41953295 0.59682435
C 1.1414977 -0.23418052 -0.47483405
C 0.8487281 1.2732651 1.4907465
N -1.0012637 0.09112242 0.4010186
C -0.9950411 -0.5481438 -0.93517864
N 0.39387438 -0.82197726 -1.3200586
H -1.3052024 -0.57033044 1.1074438
H -1.5853069 -1.4684622 -0.9306726
H 2.2265544 -0.23001821 -0.5532443
H -1.4219247 0.12416876 -1.6890529
