11

O 1.23130298 0.16136471 0.44155202
C 1.02509672 -0.99965247 -0.38886492
O -1.25483066 -0.50988137 -0.72773556
C -0.28035688 -1.29665855 -1.05358499
C -1.13992650 0.58515479 0.23360406
C 0.25076473 1.06737762 0.54731494
O 0.46169751 2.17694316 0.95306262
H 1.27932113 -1.88281276 0.21163756
H -1.61751274 0.24420164 1.15768906
H -1.72462430 1.41086155 -0.17931109
H 1.76906733 -0.95689840 -1.19536368
