11

C -0.83996755 -0.13976656 -0.7116676
C 0.40346974 -0.92750514 -0.29223898
O 0.6578128 -0.4307869 1.008877
C 0.35375613 0.9335763 0.9216063
O -0.7369048 1.067647 0.027715337
H -1.7625707 -0.6605961 -0.43202066
H -0.86551166 0.08005169 -1.785241
H 0.25035447 -2.0068161 -0.22853535
H 1.2535825 -0.71454656 -0.9574283
H 0.070016615 1.29783 1.912954
H 1.2159625 1.5009129 0.5359791
