11

C 0.14801446 -1.0264289 -0.50037235
C 0.5428708 0.22245695 -1.2242018
O -0.951378 -0.6798619 0.34072214
C -0.59362835 0.46941522 1.0361564
O 0.17688847 1.3410031 0.2012609
H 1.6326426 0.33875477 -1.250588
H -0.21915922 -1.773736 -1.2118202
H 0.9401328 -1.4765704 0.12036062
H -0.23715271 1.3740381 -0.7545321
H 0.069608286 0.24177957 1.8801968
H -1.508839 0.96914977 1.3628178
