11

C -0.32418385 -0.36716926 1.1832099
C -0.16732997 0.37678272 -1.5660905
O 0.08053939 -1.6257966 0.7488776
C 0.43359962 1.0299878 -0.5762796
O 0.50665265 0.6784425 0.7401392
H 0.95265496 1.9736658 -0.7244677
H -1.3399694 -0.21344769 0.8052465
H 0.9609247 -1.7998532 1.1077782
H -0.30103448 -0.2826584 2.276169
H -0.634415 -0.5924652 -1.4398767
H -0.1674386 0.8225113 -2.5547059
