11

C -0.8397182 -0.14141859 -0.7108048
C 0.4045002 -0.92902035 -0.2907546
O 0.6615912 -0.42842588 1.0083302
C 0.3519106 0.9371895 0.92049474
O -0.7369037 1.067227 0.027690616
H -1.7636465 -0.6615213 -0.4335432
H -0.8614392 0.07910149 -1.7835382
H 0.2504932 -2.0087194 -0.22745256
H 1.2518866 -0.7189424 -0.9593888
H 0.067558706 1.2991053 1.9124477
H 1.2137673 1.5054247 0.5365188
