11

C -1.13509485 0.29240103 -0.12377121
C -0.42487308 -0.73745696 -0.96291335
O 1.12342568 -0.23637704 -0.48677379
C 0.82869276 -0.24743974 0.93453956
O -0.34098276 0.45484526 1.10213603
H -2.13057939 -0.06750129 0.16160006
H -0.39288560 -0.40719784 -2.01507284
H 0.73562880 -1.30645656 1.17480154
H 1.33659872 0.68398238 -0.74179050
H -1.23951255 1.32267006 -0.52378083
H 1.63958231 0.24853122 1.48102518
