9

O -1.7697685 0.71557593 0.27733442
C 0.6638618 0.48233908 0.42358565
N -0.48919088 -0.8288884 -0.94721675
N 0.78582543 -1.1756849 -1.0368104
C -0.60254323 0.15944068 -0.060165055
N 1.5539467 -0.39643353 -0.2968384
H 1.288001 -0.56121635 0.90211403
H 1.0258399 1.336565 0.9760264
H -2.4559727 0.26830253 -0.23803008
