10

O 1.041457 -0.8632889 -0.58802074
C -0.41855443 0.548749 -0.8316472
N 0.8052599 2.6228588 0.13340603
C 0.27341717 1.6859751 -0.28595644
C 0.522416 -1.2635705 0.4843062
N -0.57097036 -0.6841543 0.85860854
H -0.14097443 0.31993034 -1.8538477
H -1.4934303 0.6100643 -0.70670635
H 1.0033176 -2.0685518 1.0513202
H -1.0219381 -0.9080122 1.7385374
