10

C -0.34133685 -0.6398949 -1.1916809
N 0.5263481 1.4003108 -0.1992543
N 0.5247231 0.9133148 1.9195521
C 0.04945678 -0.12359337 1.2702266
N 0.038696084 0.15903617 -0.041236676
N 0.80853707 1.8357126 0.9751407
H -0.74957854 0.031044725 -1.9471155
H -1.099648 -1.3644357 -0.8941385
H 0.5304045 -1.158971 -1.5961024
H -0.28760213 -1.0525241 1.7046087
