11

C -0.27107136 -1.06788381 -0.75857288
C 0.56049140 0.06097414 -0.40143858
C 0.59415378 0.36014099 0.99444914
C 1.06931186 1.58441979 1.29487609
O 0.24499557 -2.13167225 -0.45302528
N -1.44205890 -0.92477281 -1.44367212
H 1.53083980 2.17690479 0.50829048
H -1.62009514 -0.04137695 -1.89642431
H -1.79813755 -1.75573097 -1.89228719
H 0.98000473 2.01816517 2.28603422
H 0.15156607 -0.27916799 1.76177003
