11

C -0.7320142 -0.1699521 -2.3149483
C -0.16254151 -0.12175931 -0.968585
C 0.3215874 -0.08988545 0.1327248
C 0.9783625 -0.1001733 1.4390799
O 2.0866742 -0.56474453 1.6102871
N 0.2430127 0.46754447 2.4387605
H 0.009005048 0.15227349 -3.0539458
H -1.604897 0.48071396 -2.3986015
H -1.0351007 -1.1908717 -2.5628734
H 0.6130925 0.40212527 3.3751237
H -0.7171807 0.7347293 2.3029776
