11

N -1.4840505 -1.4252384 -1.4933676
C -0.6238863 -0.8072528 -0.8128394
N 1.298881 -0.32561788 0.33212674
N 0.4762983 1.6100018 1.4207802
C 0.40174085 0.55504996 0.5583418
N 0.68960327 -1.1497915 -0.61486626
O -0.77483547 0.37924603 -0.094909616
H -2.384 -0.9569955 -1.4755841
H 1.004698 -2.102101 -0.6878201
H -0.021550924 2.4379914 1.1284876
H 1.4171017 1.7847083 1.7396506
