9

O -0.5237108 -0.27492395 -2.0540216
C -0.116587795 0.015559633 0.2997916
C 2.2779837 -0.6161695 3.0512433
C -1.0049378 0.2650106 -0.8465985
C 0.65757436 -0.18756056 1.1933899
N 1.5113626 -0.4132531 2.1790578
H -1.1863337 1.3474079 -0.9272297
H -1.9736397 -0.21313137 -0.6721474
H 0.35828894 0.07706042 -2.2234857
