9

O -0.24318458 -1.2147849 1.7554598
C -0.1895646 0.12592587 1.3358767
C 0.115007825 0.2640681 -0.10103667
C 0.33764306 0.33245012 -1.2822752
C 0.59832376 0.41600162 -2.6385396
N 0.8149916 0.48234582 -3.7768064
H -0.9163873 -1.675916 1.2400649
H 0.6041923 0.5998359 1.9186118
H -1.1210219 0.67007345 1.5486448
