10

C 0.7934925 0.57460743 0.48612076
C -0.89918286 -0.44714594 -0.8308689
N -0.031362057 -1.4390321 -0.517371
C -0.7989014 0.6793208 -3.3528653e-05
C 0.8732754 -0.9290212 0.24425915
N -0.21246581 0.77439463 1.3368409
H -1.52902 -0.49117723 -1.7128048
H 1.5112144 -1.5445079 0.8735006
H -1.362963 1.5783211 -0.2519609
H 1.655913 1.2442402 0.37231764
