9

N 1.1732597 1.3447205 0.1519215
C 0.16957313 0.6207955 0.64290196
N -0.20485471 -0.3675642 -0.21735226
C -1.2369562 -1.2358816 0.111797996
O -1.6063071 -2.1285374 -0.6087671
H 0.22115558 -0.5469762 -1.1310154
H 1.6186907 1.2052205 -0.7534709
H -1.6606823 -1.0001612 1.0992243
H 1.526121 2.1083837 0.70475984
