9

N -0.07815013 1.58402868 -0.83224853
C -0.48484199 0.75862182 0.12994750
N 0.16026232 -0.44023763 0.06940925
C -0.12189364 -1.44056251 0.98989099
O 0.42038605 -2.51684202 0.98502426
H -0.49534427 2.49865403 -0.88452024
H 0.61944105 1.36972453 -1.54291349
H -0.89206783 -1.12068520 1.70726734
H 0.87220830 -0.69270141 -0.62185678
