9

N -0.805909 1.8463786 -0.12822789
C -0.10948701 0.81102467 -0.3500608
N -0.23721114 -0.3089999 0.4570845
C 0.48026493 -1.4726013 0.29967704
O 0.3667221 -2.439915 1.0104318
H -0.5950771 2.57428 -0.8012701
H 0.62763757 0.68035835 -1.1491275
H -0.9055521 -0.26220873 1.2172723
H 1.1786116 -1.4283164 -0.55577904
