11

N 2.258349 -0.6406733 0.7240899
C 1.1055341 -0.31709057 0.34086746
O 0.50737345 -0.90298676 -0.7223596
C -0.85733694 -0.49900404 -0.75561094
C -0.83478934 0.8031796 0.03648891
O 0.28905794 0.6203257 0.89712596
H 2.551816 -0.060412355 1.5033934
H -1.4753652 -1.2649688 -0.2744211
H -1.1614046 -0.37703574 -1.7964202
H -0.6605121 1.6754842 -0.60360247
H -1.7227219 0.9631819 0.6504483
