10

O -1.1778694 -0.8789731 -1.5282313
C -0.665289 -0.45540553 -0.4311484
C 0.7060071 0.33651057 0.76024437
C -0.25700983 0.8977282 -0.30910158
N 0.04574607 -1.0067624 0.5830896
H -0.9438374 1.7129112 -0.10886077
H -0.6132806 0.26726958 -1.6962433
H 0.54214334 -1.8860167 0.49087122
H 1.7567755 0.29147276 0.46126232
H 0.60661423 0.7212653 1.7781179
