11

N 0.51482342 -2.09525451 1.44594797
C 0.36466515 -0.91979681 0.98987441
O 0.31001421 0.74128420 -2.13788206
N -0.75260803 1.38557629 -0.28502994
C 0.01961228 0.42258729 -0.86749526
N 0.48026647 -0.66413027 -0.36688314
H 0.18117808 -0.04233659 1.63266871
H -1.35020502 1.10996787 0.47873840
H -1.13259927 2.08507855 -0.90199104
H 0.44442288 -2.07815824 2.45974133
H 0.92043013 0.05518235 -2.44768932
