11

N 1.8291025 -0.67289186 0.73016477
C -1.0117433 0.24292712 -1.0749223
O -0.13886495 0.37237403 -0.054174528
N 0.7494273 -1.0494121 1.6783869
C 0.48988065 -0.82216805 0.30119148
N -1.5242629 1.457087 -1.2795656
H 0.54838413 -0.1948397 2.1943374
H -1.2718736 2.2711837 -0.7289829
H 0.15723446 -1.6596538 -0.3089852
H 2.357458 -1.5266718 0.56847334
H -2.1847422 1.5820651 -2.0259233
