11

N -0.6967483 0.40582758 1.9838116
C 0.021083629 -0.26362437 1.0168488
O 0.7340179 -1.2169005 1.2459778
N -0.11919965 0.28499955 -0.2520023
C 0.5260048 -0.22982752 -1.3653135
N 0.40315604 0.35049418 -2.4892566
H -0.727848 -0.08370427 2.8657467
H -1.5488601 0.8802514 1.7229474
H -0.6234565 1.1505079 -0.39090446
H 1.099627 -1.1311603 -1.1400944
H 0.9322233 -0.1468637 -3.1977606
