11

N -0.6969814 0.4033073 1.983237
C 0.020833177 -0.26369554 1.0150627
O 0.7368967 -1.2141856 1.2458831
N -0.123345755 0.28287396 -0.25232238
C 0.5266115 -0.22981565 -1.365446
N 0.40102834 0.3516986 -2.4852798
H -0.728577 -0.088024706 2.8643398
H -1.5481213 0.8778629 1.7235769
H -0.62121856 1.151164 -0.39369306
H 1.1032048 -1.1283882 -1.1388952
H 0.9296698 -0.14279693 -3.196463
