10

O 0.37624902 -0.13827406 -1.9938594
C -0.9055253 0.83660936 1.3649817
C 0.73538464 0.08591594 -0.66867286
O -1.0311683 -1.4025426 0.03195803
C -0.3333183 -0.46274516 0.26505947
O -0.033229247 -0.05184766 1.6824344
H -1.2592282 1.3951219 2.2494175
H 0.8843155 1.1586885 -0.5214759
H -0.09989557 -0.9798788 -2.0179112
H 1.6664159 -0.44104758 -0.39193204
