10

O -0.07815144 -0.47215007 -2.24955441
C 0.88391334 0.31794805 0.38045242
C -0.52127215 -0.13357756 0.07616720
O -1.37370144 -0.19587871 0.93629982
C -0.87741547 -0.51516914 -1.35156066
O 1.03976223 0.62878142 1.72866202
H -1.93284427 -0.82948171 -1.47712386
H 0.17815303 0.49980550 2.15029305
H 1.57306355 -0.48289982 0.07050398
H 1.10849277 1.18262234 -0.26413948
