17

C 2.1868758 -1.9835646 -0.03893757
N 1.3535845 -0.49198258 -0.5167136
C -0.05600881 -0.51324743 -0.6839079
O -0.5729417 -1.3754643 -1.3637375
N -0.73490644 0.47152013 -0.029071646
C -0.110889085 1.4266393 0.87283576
C -2.16287 0.6102712 -0.26114345
H -0.8755946 1.8093089 1.5546961
H 2.0080473 -1.0568571 -1.1824304
H -2.4776812 -0.1940226 -0.92505366
H 1.3202016 -2.6521745 -0.06302195
H -2.7076275 0.54703516 0.6863422
H 0.65949565 0.94817454 1.4858809
H 2.42497 -1.7371621 1.0029925
H 0.32751173 2.2803411 0.33597994
H 1.793375 0.33391252 -0.1425958
H -2.3755429 1.5772723 -0.73211384
