11

O -2.0145144 0.9874354 1.3789854
C -1.0810261 0.6117129 0.7250268
N -0.97561836 -0.5524417 -0.013245718
C 0.4082238 -0.8062899 -0.3593696
C 0.9409767 0.6308901 -0.32585618
O 0.07877656 1.3109858 0.58912575
H -1.6049505 -1.2968692 0.24250852
H 0.90947926 -1.4447755 0.38008717
H 0.51117986 -1.262052 -1.3474642
H 0.85987747 1.1118422 -1.3055338
H 1.9675962 0.70956206 0.035735577
