11

O -0.72784863 -0.67531100 0.60115696
C 0.23258408 0.16347982 0.94484135
N 0.73486840 0.82838117 -0.04042252
C -0.71313489 -0.69696620 -0.89018627
C -0.05174637 0.61635936 -1.27712244
O 0.50101344 0.35960931 2.22719655
H -1.75919768 -0.80773522 -1.18799531
H -0.07580029 -0.22413951 2.74669405
H -0.16264319 -1.62178958 -1.15265826
H 0.66633822 0.44832536 -2.08720520
H 1.35556740 1.60978666 0.11570081
