12

C -1.1196946 -1.015972 -1.7001854
N -0.9952773 -0.58982605 -0.32184026
C 0.05755216 0.022635007 0.008510882
N 0.2441763 0.47094205 1.3111205
C 1.3493613 1.1494066 1.7479208
O 1.4992297 1.5400361 2.8819802
H -1.9965678 -0.53583443 -2.1475537
H -0.24128306 -0.7890885 -2.3233418
H -1.298067 -2.0958083 -1.7280155
H 0.8934463 0.25436217 -0.66240954
H -0.49221122 0.2842195 1.983557
H 2.099335 1.304928 0.9502572
