12

C -0.69081681 1.93189692 0.88806402
N 0.17818645 0.87276558 1.00433704
C -0.08655555 -0.40807009 0.49067531
N 0.40754303 -0.71363245 -0.71346749
C 0.36595270 -1.81469189 -1.44013559
O -0.52297206 3.00522738 1.42042310
H -1.55320738 1.68225590 0.24286451
H 0.83722629 -1.81451994 -2.41032755
H -0.14973643 -2.68613635 -1.06178772
H 0.90803049 0.06957057 -1.12680613
H -0.63487058 -1.14699897 1.05329887
H 0.94121963 1.02233350 1.65286201
