12

C 0.067925386 -0.014589146 0.2925089
N 0.6662853 0.87028116 -0.42997676
C -1.905801 -1.426511 0.5846127
N -1.2736818 -0.33273575 0.064628325
C 2.0450644 1.177147 -0.5203124
O -3.0696023 -1.7026573 0.3953133
H 2.2229266 2.172196 -0.9092338
H -1.2270437 -2.0432022 1.2037191
H 0.58419895 -0.5470326 1.0885454
H 1.0087941 0.77799666 -1.4979589
H 2.7138524 0.7932181 0.25055012
H -1.8329182 0.27588883 -0.52239597
