12

C 1.22218 -1.8350153 0.8000085
N 0.76964086 -0.73479396 0.22831847
C -1.3716478 1.3211397 -1.1710181
N -0.36218277 1.2703996 -0.2388963
C -0.14030264 0.16926162 0.60534364
O -1.6397103 2.3037264 -1.823921
H 1.177134 -0.5070897 -0.67547554
H 1.9646336 -2.421509 0.28216773
H 0.8326346 -2.1370668 1.7620465
H -1.8986764 0.3527854 -1.2537909
H -0.6497801 0.061867833 1.5498593
H 0.09607677 2.1562939 -0.06464269
