11

N 0.29809722 0.30548483 1.9999088
C 0.114646286 0.1030833 0.76305306
C -0.6350902 0.84488636 -0.34247687
N -0.42724913 0.08538456 -1.5764163
C 0.29118845 -0.91589147 -1.2468656
N 0.6461181 -0.9923638 0.08846567
H -0.16955417 1.1591738 2.3008182
H -1.7055144 0.91323984 -0.118349545
H -0.26025677 1.8687787 -0.45720688
H 0.6243554 -1.6831489 -1.940323
H 1.2232591 -1.6886275 0.5293925
