11

N -1.06422235 1.46986240 -0.17935062
C 0.99351829 0.11134484 0.38394627
C -0.41550326 0.29227729 -0.12588617
N -0.91062661 -0.83614204 -0.54268066
C 0.13515149 -1.74078784 -0.31583669
N 1.23002431 -1.31294385 0.19722831
H 1.09704216 0.38413802 1.43980854
H -2.04150694 1.45305468 -0.42997350
H -0.73243570 2.26260779 0.34247549
H 1.71818709 0.70075064 -0.18903655
H -0.00962859 -2.78416220 -0.58069438
