11

N -1.0069722 -0.8948152 -0.09049495
C 0.08913446 -1.7656248 -0.15160863
C 1.0594044 0.15652268 -0.007350125
N 1.2753065 -1.2795726 -0.109397076
C -0.44522527 0.27511474 -0.0016169859
N -1.1206154 1.4376832 0.050193585
H -2.1219697 1.3906493 0.16533203
H 1.5158904 0.55096126 0.90698963
H -0.6604629 2.28634 0.33103418
H 1.5106688 0.67569983 -0.86038524
H -0.095158875 -2.8329587 -0.23269649
