11

N 0.20979364 -0.971928 -1.4355798
C 0.014218607 0.43532687 0.4211523
C 0.62549126 0.35423306 -0.94945747
N -0.14273562 1.1698836 1.4889468
C -0.48993012 -1.4818949 -0.4839699
N -0.6465388 -0.7027016 0.6521364
H -0.841187 0.001397176 1.7699815
H 1.718326 0.42847687 -0.91671866
H -0.93924904 -2.4691002 -0.5477911
H 0.25638407 1.14339 -1.6147555
H 0.23542702 2.0929172 1.6160556
