11

N -0.59287685 1.0864295 1.2527119
C 0.59718305 1.2813226 0.99965274
C -0.8871759 -0.24715844 -0.45726317
C 0.9558882 0.41639185 -0.3075015
C 0.36040044 -0.9732249 -0.00037724277
O -0.12314332 0.6303536 -1.1991652
H 0.7080219 -1.673073 -0.7672659
H -1.7995409 -0.6167454 -0.9203267
H -1.5761018 0.91311544 1.1483035
H 0.4207075 -1.3963943 1.002316
H 1.9366378 0.57898307 -0.7510843
