10

N 1.88180693 0.86535274 -0.91234056
C 1.08956521 0.12951188 -0.36648845
C -1.28231693 -0.54233834 -0.34821045
C -0.99996044 0.08375573 0.91845096
C 0.19462670 -0.68022297 0.23897129
H -1.30985682 0.19023373 -1.17046060
H -1.22555797 -0.45185797 1.84632935
H -0.87983438 1.16078002 1.07508029
H 0.54427971 -1.62787150 0.64077079
H 1.98724815 0.87265656 -1.92210226
