10

N 0.2568366 -2.0337172 -0.99963194
C -0.12209384 0.43966925 -0.67619354
C -0.3462294 1.1290814 0.6225871
C 0.09420321 -1.4994285 0.06270894
C 0.37479764 -0.23134056 0.6226174
H 0.33328047 1.8973967 0.9863618
H 1.4363545 -0.15583666 0.8518425
H 0.44240287 -0.83123547 -1.5196882
H -1.3609467 1.2228873 1.0055193
H -1.1086057 0.062523894 -0.9561234
