10

N 1.2839468 0.21956505 -1.8508565
C 0.32705238 -0.538489 0.40094444
C -0.55138046 0.5537928 1.1134546
C 0.83751583 -0.1433942 -0.7850126
C -1.2672738 -0.5041176 0.44676697
H 0.8819469 -1.2684312 0.9849087
H -0.46390316 1.5821297 0.74764687
H -0.34328794 0.47134173 2.185198
H 0.975027 -0.198264 -2.723082
H -1.6796435 -0.17413345 -0.5199684
