10

O -1.6551397 1.2317432 -0.2993561
C 1.0121695 -0.6863646 0.72383755
C -0.52424246 0.6457238 -0.110105865
C -0.08925395 -0.28195724 -1.0878212
N 0.8741593 -1.1291599 -0.47642934
N 0.20667483 0.43100432 1.014307
H -0.031021459 0.7764428 1.9313838
H 0.046817843 -0.004354788 -2.1288712
H -1.5174222 0.11003098 -1.0421792
H 1.6772583 -1.0931087 1.4752345
