11

N -0.46022338 -1.2122586 1.0622708
C 0.77400744 0.26480702 -0.10700097
C -1.4352543 -0.3626441 0.96102065
N 1.5088031 -0.44627798 -0.99036276
C -0.19056997 1.2629552 -0.26543805
N -1.1391331 1.0116369 0.6926546
N 0.4982648 -0.17477845 1.1928179
H -0.32313037 2.046237 -1.0035688
H 2.0490162 -1.2150872 -0.6233571
H 1.204744 -0.535524 -1.9472189
H -2.4865239 -0.6390659 1.0281827
