11

N 0.99881566 1.2669395 0.1086065
C -0.014712726 1.0289398 -0.9085458
C 1.4798241 -0.47798032 0.7792319
N 2.1219184 0.33669984 0.025434844
C -0.6498641 0.14342606 -0.12645033
N -1.8310713 -0.55214924 -0.015633631
N 0.2877337 0.28255042 0.97075176
H -1.8107313 -1.276286 0.68885505
H -2.2233438 -0.86821103 -0.88939697
H 1.7599895 -1.4278107 1.2178886
H -0.11855838 1.5438818 -1.8507419
