11

N 0.98813206 -0.8505479 -1.5257434
C 0.24964035 -0.22268541 -0.55586433
C 0.5897558 -0.2744595 0.8137223
N -0.11985004 0.3859284 1.7024239
C -1.1532955 1.0888834 1.2082376
N -1.5077289 1.1544206 -0.064687215
N -0.80080384 0.48255756 -0.96398896
H 1.5334033 -1.655766 -1.2662492
H 0.5414145 -0.9060077 -2.4286513
H 1.4382302 -0.8556561 1.1701841
H -1.758898 1.6533326 1.9106164
