11

N 2.07264655 -0.52587189 -0.21011069
C -0.00323115 -0.01981184 -1.37258373
C 1.47241381 -0.25518270 0.89018331
N 0.58850806 0.76224839 0.42144993
C -0.60657193 0.22571873 -0.20001399
N -1.84948429 0.29986084 0.38396171
N 1.26579242 0.49272832 -0.87724121
H -2.51867994 -0.37664287 0.04966384
H -0.22152648 -0.34351089 -2.37819238
H 1.62112547 -0.61625008 1.90043342
H -1.82099260 0.35671396 1.39244969
