9

N -1.263776 -1.4610907 -0.9524427
C -0.88633364 -0.296356 -0.61908215
N 0.25726345 -0.14551085 0.1639262
C 0.6975787 1.0694009 0.5461824
O 1.802743 0.860456 1.2740335
H 2.1155972 1.730528 1.5466608
H 0.7335591 -1.0102416 0.418864
H -1.349019 0.6581372 -0.8681239
H -2.1076128 -1.4053228 -1.510018
