9

N 1.1804456 -0.2978554 -0.7820845
C -0.5501692 0.6963984 2.0665822
O -0.67629355 0.40929088 -1.9146324
C -0.114391774 0.08058551 -0.89311796
C -1.9117557 0.60619545 1.0000515
C -0.85538936 0.060112603 0.4044593
N -0.33880952 -0.49506414 1.6748602
H 1.5491045 -0.6781252 0.075876966
H 1.7172595 -0.38153794 -1.6319956
