9

N -0.2620962 1.2197702 1.5215323
C -0.36916423 1.1566998 0.16635835
O -0.74148273 2.064793 -0.54600245
C 0.013167138 -0.14139782 -0.4082238
C 0.3020694 -1.1636472 -0.9732806
C 0.63476586 -2.3402915 -1.6323367
N 0.9121636 -3.319737 -2.1769173
H 0.035563346 0.4369488 2.0804348
H -0.5249863 2.0868611 1.968435
