11

O 0.539645 -0.21815418 -1.6496105
C -0.48093903 0.56271887 -1.0513195
C -0.1174083 -0.7913948 0.95486045
C -0.87612325 0.34362623 0.3668017
O 0.93298835 0.17056563 1.2576452
H -0.32072148 1.6379681 -1.2281027
H 0.5983701 0.7299039 1.9778095
H 1.3634957 0.026367517 -1.2097813
H -0.53964555 -1.2399226 1.8582736
H -1.4235597 0.31475818 -1.5695684
H 0.32389793 -1.5364367 0.29299188
