10

O -0.5673463 -1.8796701 -0.7859467
C 0.21054901 -0.9924044 -0.04700014
C -0.31489167 0.4187179 -0.14759909
O -1.2889987 0.69399804 -0.81384116
C 0.4039135 1.526362 0.6087217
O 1.3770046 1.3187493 1.2864825
H -1.2651093 -1.3551651 -1.2056018
H 0.23837559 -1.2711227 1.0179472
H 1.2569699 -0.987957 -0.38943467
H -0.05046657 2.5284925 0.4762722
