10

O -0.86177647 -1.68823832 0.05883863
C -0.22596924 -0.68846365 0.19732766
C -0.25190514 0.49333682 -0.74128300
O -1.11339587 0.26014760 -1.81704212
C 1.30758676 0.49038290 1.47912031
O 0.60578429 -0.61627635 1.34241272
H -1.52524866 -0.60630268 -1.67944733
H 1.85233545 0.28671144 2.42527871
H 0.77082233 0.68640520 -1.09486666
H -0.55823339 1.38229747 -0.17033888
