11

O -1.4733031 1.6289837 1.2698954
C -0.7518468 0.8411167 0.6924275
N -0.75899595 0.5577192 -0.65119296
C 0.22283901 -0.42784244 -1.0347803
C 0.87260896 -0.74367416 0.28778538
C 0.32357034 -0.026354155 1.2647223
H -1.3936919 1.0122555 -1.2855424
H 0.9502031 -0.030926729 -1.7543931
H -0.23635794 -1.3185331 -1.4808725
H 1.6763909 -1.4675709 0.37416452
H 0.56858337 -0.025173351 2.317786
