11

O -2.23873437 -0.28075288 -0.66495329
C 1.09979079 0.64283726 -0.19160777
N -0.47459541 -0.88054054 0.70455898
C -0.97510716 -0.17093167 -0.23660685
C -0.05679206 0.80042633 -0.84313666
C 0.90381828 -0.43800586 0.83459183
H -0.30699009 1.48077727 -1.64542743
H 2.02479295 1.18201124 -0.35442673
H -2.64951355 -0.97893538 -0.13191845
H 1.58540139 -1.28310986 0.67522616
H 1.08792922 -0.07377564 1.85370005
