11

O -0.29219 -1.3682677 -1.8908689
C -0.42607328 1.024273 0.65484303
N 0.8647229 -0.86431897 0.0469349
C 0.7399932 0.16778329 1.0627977
C -0.9180192 0.5268121 -0.4842487
C -0.07189917 -0.6317887 -0.7948006
H 0.38234723 -2.0649145 -1.8935622
H -0.78324705 1.8866838 1.2039533
H -1.753192 0.8686367 -1.0798906
H 0.5868362 -0.2904935 2.0485296
H 1.6707209 0.7455943 1.1263124
