11

O 0.00668288 -0.18290772 1.71999829
N -0.00561533 0.16365078 -1.61505428
C -0.63733376 -0.92001779 0.66354314
C -0.02144620 0.02212112 -0.32987791
O 0.61754264 1.05240641 -2.26655359
C 0.62116083 0.75030373 0.79914033
H -1.72989635 -0.89518572 0.76120490
H -0.55573677 -0.51606041 -2.16403329
H -0.29694092 -1.96245092 0.62182796
H 1.71621901 0.70828439 0.83996515
H 0.28536409 1.77985618 0.96983946
