10

O 0.8486354 -0.90203255 1.5714923
C 1.1383337 -0.21393496 0.44631374
N -0.4993133 -1.0783948 1.6563877
C -0.0017356705 0.07087398 -0.23306808
C -1.0075259 -0.51300544 0.59594935
N -0.18863241 0.69011897 -1.473226
H 0.61825556 1.2232664 -1.7727325
H 2.1853545 -0.010916611 0.2722845
H -1.0135624 1.274264 -1.5055628
H -2.0798094 -0.5402391 0.4421619
