10

O 1.2436441 0.51027626 -1.751463
C 0.47478008 0.085179396 -0.7385432
N -0.061992943 -1.0934604 -0.6059778
C -0.7494953 -1.02433 0.5926702
C -0.61375237 0.20237416 1.1645166
N 0.19046226 0.9231889 0.28475642
H 1.3057612 -0.24074017 -2.359281
H -1.304466 -1.8744264 0.96387184
H -0.9915376 0.63723993 2.0774593
H 0.5065967 1.874698 0.37199077
