10

O -0.9643515 -1.315637 0.8804788
C 0.2219844 0.26575992 -0.18885455
N 0.4643251 1.5675713 -0.15796492
C -1.0156835 0.03606988 0.4835421
C 0.83343583 -1.0165188 -0.3397985
N 0.13604203 -1.8889298 0.35230413
H 1.1326114 1.9842447 -0.807256
H -1.9251472 0.21122082 -0.09371953
H -0.65387183 1.4664291 0.66189736
H 1.7706552 -1.31021 -0.79062897
