9

O -0.113405176 0.37622738 2.1363623
C -0.11383965 -1.0602063 -0.72645605
N 1.0643023 -0.6314814 -0.24837981
C -0.5444663 0.79371244 1.0945625
C -0.052183222 0.3538148 -0.25327212
O -0.7130315 -1.9573718 -1.234332
H -1.3607608 1.5441722 1.0503864
H 1.9142878 -0.53261685 -0.7840976
H -0.080903545 1.1137495 -1.0347738
