11

O -0.24047405 -2.0191524 -1.1650298
C 0.20382835 0.7752498 0.7469034
N -0.8536993 0.2202761 -1.0246762
C -0.18298961 -0.86091644 -0.51091814
O 0.4540888 1.337468 1.9555604
C -0.71575767 1.3424648 -0.21810582
N 0.46974376 -0.6032807 0.57034165
H -1.3444455 0.21132503 -1.9050395
H 1.1696444 0.8276232 2.3557825
H 0.2827362 -2.660652 -0.66231406
H 0.75732464 1.4295945 -0.14250468
