11

C 0.61648542 0.40114570 1.57252172
C -0.38094947 -0.00803672 0.51550365
C -1.65941423 -0.20992352 0.70481532
C 0.18483157 -0.32617870 -0.85410780
O 1.36001614 -0.58875367 -1.00231866
N -0.71433092 -0.28622317 -1.86866398
H 0.15815654 0.45326060 2.56065976
H 1.04858576 1.37641922 1.32292376
H 1.42847141 -0.33270264 1.57842382
H -0.38848500 -0.52552788 -2.79348206
H -1.65336731 0.04652062 -1.73627518
