12

C 1.94157365 -0.19010541 1.10242782
C -0.35378260 -0.00311952 0.32870683
N -1.10952712 0.11586768 -0.81416475
N 0.93718645 -0.06801071 0.05892455
C -2.48943697 0.20830771 -0.73567879
O -3.20726855 0.31004769 -1.70162416
H 2.62182892 0.66807893 1.08136283
H 1.30196366 -0.03048897 -0.89172187
H 1.42025508 -0.21589690 2.05731974
H -2.83570622 0.17691863 0.30908050
H -0.74746635 0.13818893 -1.76960044
H 2.52037998 -1.10978794 0.97496757
