10

O -0.4720415 0.2874253 0.7956699
C -1.7701784 0.077868834 1.1824499
O -2.5820942 -0.54569167 0.5706151
C 2.0997095 0.6884961 -0.101613894
C -0.08107855 -0.27051774 -0.3737301
C 1.1779722 -0.10141774 -0.8499892
H -1.9233916 0.58195704 2.1441805
H -0.8533762 -0.8468599 -0.87808853
H 1.3660269 -0.6094593 -1.799248
H 3.038452 0.73819906 -0.69024587
