10

O 0.042342566 1.7055858 -2.0382938
C -0.3529946 -0.21297784 -0.20533806
O 0.8939622 0.25836146 -0.50947917
C -0.546022 -0.9753474 0.92638564
C -0.26124555 -1.8985462 1.8007969
C 0.9784566 1.2217946 -1.4694488
H 2.0344245 1.4643459 -1.6317115
H -1.1547645 0.13125466 -0.85033387
H -0.45968172 -1.7084036 2.858408
H -1.1744776 0.013932525 1.1190146
