10

O 1.249711 -1.3860842 0.9917246
C 0.3562506 -0.9467597 0.013605649
C -0.018761653 0.49862376 0.22150686
O 0.42151758 1.1489186 1.1467626
C -0.9800575 1.1504711 -0.7589486
O -1.4477341 0.55647373 -1.6947634
H 1.4049813 -0.6403052 1.5858788
H 0.78487843 -1.051009 -0.9945003
H -0.56982493 -1.5424542 0.01637514
H -1.2009609 2.212125 -0.5276414
