10

O 0.38921243 -1.36493794 1.27237151
C -0.15336329 -0.89538412 0.10953369
C 0.57528024 0.22326378 -0.64254101
O 0.62631204 1.30258123 0.31142404
C -0.58945338 1.02587680 -0.35288017
O -1.28647685 0.01323304 0.31708765
H 0.71793880 -0.58971969 1.75152275
H 1.31138909 0.19640779 -1.43625798
H -0.46630068 -1.74747573 -0.49605801
H -1.12453857 1.83615473 -0.83420252
