12

C -0.8359197 0.004237328 0.047926333
C -0.49395898 0.63327074 1.2474918
O 1.5821568 -0.14243942 -0.3160242
N -0.4847554 -1.3003143 -0.24693936
C 0.6111783 -0.54197615 -1.0685477
N -0.5213561 0.5388223 -1.1849338
H 0.823724 0.38239986 0.6771022
H -0.5919419 0.06354394 2.1690679
H -0.6535094 1.7065532 1.3296773
H -0.1769231 1.4960718 -1.1599227
H 0.8429998 -1.0138541 -2.0280933
H -0.10169431 -1.8263155 0.53319556
