12

C 0.5592165 -0.647081 -1.8497798
C -0.08065109 -0.7406504 -0.4809535
O -0.60836065 -1.7426904 -0.04993051
N 0.0076043694 0.42003593 0.26774812
C -0.4748264 0.5396058 1.5640109
N -0.3494887 1.6405582 2.17858
H 0.13575092 -1.4240171 -2.4863646
H 0.40512073 0.3346746 -2.3111749
H 1.6387907 -0.81814605 -1.7589703
H 0.44943333 1.2438619 -0.11703419
H -0.93546134 -0.37783417 1.9337065
H -0.7471285 1.5716827 3.1101615
