11

O -0.8113094 2.1597319 -0.703105
C -0.42001694 1.0855541 -0.3093822
C 0.34762096 0.00054066506 -1.0761037
C 0.54145616 -1.0874721 -0.05692022
C -0.017192846 -0.6914386 1.0898689
N -0.58535403 0.57948554 0.9659696
H 1.2854283 0.41957545 -1.4581206
H -0.23922013 -0.31149718 -1.9474992
H 1.0471449 -2.0265985 -0.23383254
H -0.075018674 -1.2090855 2.0382993
H -1.0735382 1.0812045 1.6908256
