11

N 1.8779497 0.38660705 -0.60034907
C -0.018379165 -0.30436212 0.8834852
C -1.6243579 0.012683768 -0.8430584
C 0.5779457 0.10527311 -0.2638895
C -1.4277527 -0.32578212 0.5386037
O -0.32985616 0.34561783 -1.2446845
H -1.9045889 0.8007338 0.23499477
H 0.44971925 -0.5378617 1.8287358
H 2.0438552 0.397576 -1.5963074
H 2.5738127 -0.12316569 -0.079373196
H -2.2183475 -0.7573199 1.1418425
