10

N -1.3332485 -0.3882452 -0.27378413
C -0.30757082 0.05591826 0.3187758
O 0.92236954 0.09422534 -0.29228213
N -0.16685861 0.58436877 1.5794319
C 1.0200613 -0.25040853 -1.6092712
O 2.0794659 -0.24657351 -2.1565084
H 0.053485196 -0.5074281 -2.0628984
H -2.1637962 -0.33469257 0.30509615
H 0.77363044 0.64471996 1.9391984
H -0.8775379 0.34811562 2.2522416
