11

O 0.84065485 -1.0723749 0.22642657
C -0.5001378 0.704558 0.44573012
C 0.062027022 -0.59098804 -0.77992225
O -0.23704097 1.8549162 -0.08339994
C 0.5463369 -0.09242078 1.2315494
N -0.19113645 -1.2576779 -1.8315333
H 0.14195734 0.8200291 -0.8919538
H -0.69252706 -0.73791736 -2.543745
H 0.1494619 -0.58351684 2.1257427
H 1.4311485 0.509456 1.4573884
H -1.5507442 0.4459365 0.6437176
