11

O 0.5546189 -0.62995523 1.8465081
C -1.1000291 -0.17681268 0.1539877
C 0.84914637 0.6592038 -0.8529346
O -0.34774044 0.9234986 -0.28389725
C -0.53056633 -0.8578227 1.3824643
N 1.6033074 1.6160328 -1.1854475
H -2.100631 0.1984803 0.38725674
H 1.036432 -0.41292152 -1.0113945
H -1.2082849 -0.93999106 -0.6338023
H -1.2037866 -1.6306552 1.8158332
H 2.4475334 1.250943 -1.618574
