10

O -2.443247 -0.31629318 -2.0513706
C -2.0367768 0.6459334 -1.2325184
C -0.3908674 0.09871956 0.45280245
N -1.5232078 0.16506024 -0.11423024
N 1.8162706 0.26436743 0.5235462
C 2.769575 0.34543267 1.1999735
N 0.81432 0.31985158 -0.22323464
H -2.2745094 -1.2045057 -1.6845883
H 3.6090097 -0.18025064 1.6105833
H -0.34056726 -0.13831556 1.519037
