10

O -1.97450714 -1.00011006 0.85198683
C -0.85095448 -0.50334849 0.32964478
C 0.97741321 -0.20201787 -0.75143311
C 0.61159873 1.00466281 0.06111706
N -0.48234111 0.81648476 0.70584436
N -0.09618819 -1.13982905 -0.47924893
H 1.04380584 0.02769288 -1.82132940
H 1.94762849 -0.61791487 -0.45403383
H 1.16879789 1.93463666 0.12515936
H -2.34525324 -0.32025682 1.43229282
