11

O -0.63971805 1.17200793 0.10607435
C -1.24584958 -0.08941150 0.45302150
N 2.72344083 0.98241549 0.78599952
C -0.13690674 -0.87046900 -0.26264490
C 0.47759189 0.52385619 -0.50080669
C 1.73807674 0.79198220 0.21792241
H -2.25079215 -0.18495316 0.03579927
H 0.60987097 0.81744636 -1.54755817
H -0.44251169 -1.36940529 -1.18348973
H 0.45204811 -1.54832892 0.35542061
H -1.28525044 -0.22513992 1.54026212
