11

O -0.64736944 1.145082 -0.25257352
C 0.9609459 0.73282474 1.4950544
N 1.2171432 0.8219431 2.61592
C -1.1758223 -0.15064742 -0.6000927
C 0.63023555 0.59334487 0.06380978
C 0.18817349 -0.816103 -0.37948492
H 1.4360201 1.0495319 -0.52098614
H 0.68809247 -1.158807 -1.2866354
H -1.5635821 -0.17007466 -1.6210614
H 0.22968706 -1.5888544 0.3883033
H -1.9635237 -0.4582403 0.09774677
