10

O -0.95427847 1.8528692 0.998899
C -0.29733366 1.1054282 0.026926648
C -0.13824628 -0.33813608 0.46386218
O -0.5629904 -0.70551944 1.5378615
C 0.5393268 -1.2338146 -0.46210483
C 1.1033463 -1.9473708 -1.2474794
H -1.1493795 1.2390563 1.7249697
H 0.70432955 1.5097378 -0.18249309
H -0.8477394 1.1127337 -0.92520475
H 1.602965 -2.5949843 -1.935237
