10

O 1.3589027 -0.28781328 -0.07575885
C -0.5552789 -0.24403392 0.8370427
C 0.09203946 0.18094207 -0.45203307
O 1.4700248 -1.2335864 2.0122063
C 0.8667614 -0.708702 1.1366129
C -0.24371192 0.7661059 -1.5892017
H 0.49149743 0.94565314 -2.3684814
H -1.2895192 -1.0502685 0.7655694
H -0.92130923 0.5572087 1.4848341
H -1.2694066 1.0744942 -1.7507907
