11

N 0.52777012 0.04345013 0.79114682
C -0.78648033 -0.53266838 1.27668543
C -0.89776920 -0.13115813 -0.95164677
O -1.56218908 -0.60690957 0.23974826
C 0.38129006 0.27708736 -0.71108864
O -0.97284455 -0.82880177 2.41781601
N 1.45019326 0.75780220 -1.24259930
H 1.30557315 -0.59605631 0.98543645
H 0.73702492 0.91940837 1.27873045
H -1.50061229 -0.18801446 -1.84015449
H 1.31804416 0.88586037 -2.24407426
