11

N 0.5232134 0.7386547 -0.2949229
C 0.29828942 1.0316905 1.1742448
C -0.18601339 -0.5797317 -0.5975924
O -0.4255093 0.06012711 1.637553
C -0.7301801 -0.9079465 0.60933876
O 0.7445727 2.000826 1.7092338
N -0.05279931 -0.9415825 -1.82538
H -1.3179568 -1.7400184 0.9532476
H 0.1485752 1.4964942 -0.8729832
H 1.5238401 0.6706374 -0.5089658
H -0.5260319 -1.8291504 -1.9837735
