12

N 1.3703264 0.0011547364 -0.44288036
C 0.707701 1.0354133 -0.8281411
C -0.6854017 0.7518906 -0.2583971
O -0.9059703 1.6152157 0.8441117
C -0.6807019 -0.7395288 0.1467331
N 0.7376871 -1.0371104 0.35951638
H -1.0951074 -1.3523977 -0.6615866
H 0.99416023 -1.9201424 -0.077703804
H -1.4834355 0.9771451 -0.96937954
H -0.08282916 1.6646781 1.3473016
H -1.2496821 -0.8970976 1.0641524
H 2.3732536 -0.099220656 -0.52372664
