12

N 0.47636626 -1.21800574 -0.19639125
C -0.81461344 -0.53239775 -0.29111193
C 1.00256457 1.11141331 -0.13551290
O -0.73214553 1.14415176 1.51562137
C -0.49197086 0.91708589 0.13712088
N 1.40238584 -0.09944304 -0.31203172
H 0.64078447 -1.79976808 -1.01566209
H -1.19451638 -0.54754447 -1.31881095
H -1.54265327 -0.98616844 0.38288713
H -0.00508816 0.74385532 2.00994746
H 2.37180910 -0.37750958 -0.38532458
H -1.11292249 1.64433044 -0.39073139
