12

N -0.74233097 -1.0228033 -1.0332166
C -0.23371209 -0.6332691 0.28025207
C 0.56808776 0.6647714 0.08664337
O -0.17010452 1.5729446 -0.68015105
C 0.8893511 1.2627808 1.3963014
N 1.1530985 1.6828278 2.4397442
H -0.041457694 -1.5359699 -1.5596567
H -1.5610204 -1.6108975 -0.9539977
H -1.092534 -0.41401705 0.9280669
H 0.38563177 -1.3905556 0.77704024
H 1.528827 0.42336878 -0.4010044
H -0.68383634 1.0008187 -1.2800217
