13

C 0.57513010 -1.17268662 -0.52097565
C -0.32071017 0.74189988 0.96969980
O -0.76915667 1.57310855 -0.10365151
C 0.87136070 -0.07488129 0.49828559
O 1.18255610 -2.22782019 -0.52303277
N -0.40022416 -0.87143897 -1.41657117
H 1.60666890 0.60745658 0.05254358
H -0.57400809 -1.52126109 -2.16720195
H 1.35019184 -0.56035865 1.35168438
H -0.78605291 0.06258349 -1.43871235
H -1.12818459 0.07250201 1.29975527
H -1.58295787 2.00852483 0.17228950
H -0.02461302 1.36237105 1.82588726
