13

C 0.44890374 1.286448 -0.38024327
C -0.5509549 -0.8927845 0.33942088
O 0.9865222 0.7172053 -1.5510617
C -0.8125821 0.563589 0.08506804
O -1.392468 -1.8186395 0.091171704
N 0.5464378 -1.4849485 0.78136355
H 1.2137259 -0.19862716 -1.3531454
H -0.35300153 -2.4424045 0.5937638
H 1.3049722 -0.9999971 1.239773
H 1.1909401 1.3002194 0.4366069
H -1.5976762 0.62761366 -0.67325366
H 0.21402687 2.3281822 -0.61740774
H -1.1988462 1.0141443 1.0079436
