11

N 0.4648984 0.33520824 -2.9253979
C 0.35983396 0.62840986 -1.8144989
C 0.20872332 0.9677798 -0.39422446
C -0.5978203 -0.087481484 0.3420054
C 0.057877168 -1.1806866 1.054008
O -0.47244295 -0.05977015 1.7505726
H -0.27970025 1.9442041 -0.31034383
H 1.1985182 1.0572013 0.06765273
H -1.6135694 -0.23414874 -0.02345177
H -0.4700668 -2.122037 1.207739
H 1.1437488 -1.2486794 1.0459391
