11

N 0.37521327 0.783463 0.7569033
C -0.36427796 1.1789858 -0.13621734
C 0.13791773 -1.6516528 0.36321864
C -1.1737417 1.6888155 -1.0301756
C 1.067414 -0.49650863 0.6940143
O 0.5245998 -2.6950846 -0.09308655
H 1.884757 -0.46645468 -0.035314854
H -0.9330514 -1.4718149 0.5965415
H -2.2381077 1.4881305 -0.9790662
H 1.5096256 -0.6889701 1.6776688
H -0.79034895 2.3310912 -1.814486
