11

C 0.27296495 0.14620972 -0.14947295
C -1.5516242 -1.1620091 -0.21192531
N 0.21206228 -0.24737011 1.0729314
C -0.94336903 -1.0465974 1.0728859
C 1.3062661 1.0084904 -0.7813187
O -0.74531215 -0.28097177 -0.93689424
H -2.0190778 -0.43377036 0.8317797
H 1.7277379 0.50053495 -1.6533232
H 0.85187745 1.9426979 -1.1234039
H 2.0901225 1.2253854 -0.056540728
H -1.2016478 -1.6525996 1.9352821
