11

C 0.3295422 0.6930872 1.1259974
N -0.55518323 -0.35909072 0.63553035
C -0.12382915 -0.9454514 -0.59748274
C 0.12441956 0.8754481 -2.4621363
N 0.021360194 0.008808549 -1.6793184
H -1.5005621 -0.009668598 0.53174067
H 0.4364878 1.5344568 0.4282989
H -0.062835604 1.0660433 2.0743167
H -0.8405081 -1.7051145 -0.91984653
H 0.8502023 -1.42514 -0.45042518
H 1.3209062 0.26662102 1.313325
