11

O -1.0794508 -0.62837666 -1.9270531
C -0.29061556 0.84296113 1.0059844
N -1.0037868 0.64287204 -0.17399926
C -0.301124 -0.31040916 -0.738593
O 1.7386457 -0.18893202 1.884175
C 0.76688117 -0.044076644 0.9626735
N 0.7573284 -0.8225202 -0.17879006
H -1.6992822 0.21326582 -1.434374
H -0.55675495 1.5758805 1.7529469
H 2.2886953 -0.92711294 1.5874135
H -0.6205362 -0.3535518 -2.7403839
