11

O -1.568776 0.06170742 1.802234
C -0.7000568 0.017109875 0.78328
N 0.40110204 0.7123938 0.6633218
C 0.9216129 0.29897282 -0.54141515
O 2.0796309 0.8165093 -0.99785554
C 0.1389977 -0.63947403 -1.143416
N -0.9277707 -0.81027114 -0.2511123
H -1.2194463 0.7032233 2.432602
H 2.3717933 1.4492631 -0.32941973
H 0.21944527 -1.1840053 -2.0692012
H -1.7165321 -1.425429 -0.34901813
