11

C -1.6648757 0.013618359 0.7654282
C 1.5483409 0.7181101 -0.56564075
N -1.3761715 -1.2317191 0.5319085
C -0.05047972 -1.301879 -0.08513554
C 0.33061242 -0.000524517 -0.10647606
O -0.656037 0.8073653 0.47486988
H 1.3180683 1.4442769 -1.3535538
H 2.037769 1.2522492 0.25583288
H -1.172536 -2.1169407 -0.14809065
H 2.2452013 -0.021586878 -0.9663379
H -2.559892 0.4370306 1.197195
