11

C 1.08321713 -0.72780933 -1.32919788
C 0.37393476 -0.07989922 -0.19802710
N -0.47257577 0.91914298 1.47235873
C 0.78818540 0.68732969 0.85051972
C -1.47802882 0.34374706 0.84453995
O -1.03781548 -0.29394909 -0.19455206
H -2.53021078 0.35406927 1.09253895
H 0.95130319 -1.81677282 -1.33320711
H 0.75607831 -0.34403116 -2.30303987
H 2.14715985 -0.51046248 -1.21454285
H -0.58124786 1.46863487 2.31260960
