11

C -0.53226125 -1.0794499 -1.4115591
C -0.019263392 -0.24956045 -0.2863819
N 1.1571268 -0.25900432 0.24846484
C 1.0909225 0.69384366 1.2531908
C -0.14103283 1.2354289 1.2679298
O -0.87040466 0.63845116 0.28035724
H -1.4259491 -1.6332802 -1.1109664
H 0.24149875 -1.7865472 -1.7110542
H -0.7974823 -0.45819697 -2.27387
H 1.9397742 0.9111526 1.887528
H -0.6429288 1.9871625 1.856361
