10

O 1.44389372 -1.46606243 0.57779758
C 1.08930362 -0.38213873 0.96651981
C 0.14478076 0.51296065 0.22148026
C -0.36661689 0.02838195 -1.15836059
O -2.32058581 -0.16965866 0.49307033
C -1.25323843 0.03491674 -0.00241188
H 0.04400268 -0.93016424 -1.47283853
H 0.28184709 1.58118024 0.37907299
H -0.49775095 0.76786623 -1.94507880
H 1.43436412 0.02271840 1.94074841
