9

N 2.32904234 -0.37085611 -0.96936463
C 1.15981740 -0.25900474 -0.58656251
C 0.00543347 -0.09215759 -0.03291744
C -1.09325420 0.71588064 0.45983206
N -1.13066814 -0.76324615 0.50309858
H 2.41607221 -0.55278296 -1.96842013
H -0.93928696 1.26407648 1.38503202
H -1.80421031 1.15819730 -0.23617283
H -0.94294589 -1.10010676 1.44547492
