9

N 0.3835867 0.16537794 -1.0752572
C 0.80313104 -0.6897515 0.075756736
C -0.37365812 0.16799344 0.10710343
C -1.7874095 0.22725222 0.44695127
N -1.237741 1.3012334 0.93594474
H 0.6332171 -1.762924 0.011372423
H 1.7458866 -0.39176673 0.5280371
H -0.08666637 -0.34632596 -1.8186164
H -0.08034653 1.3289112 0.78870803
