12

N -1.6196315 -0.5364974 -0.45457256
C -0.84646964 0.65942395 -0.49873427
C 0.5628373 0.42255026 0.06412191
C 1.3209865 -0.53305316 -0.7828897
N 0.47704718 0.010688332 1.449453
C -2.1997724 -1.5489771 -0.3723637
N 1.9373156 -1.2993827 -1.3857805
H -0.79431087 1.0056845 -1.5339141
H 0.013087131 -0.89069587 1.5226644
H 1.3987312 -0.09328957 1.8557795
H 1.0852025 1.3830614 0.021291098
H -1.335023 1.4204873 0.11494503
