10

O -1.49089930 1.13945477 -0.27011191
C -0.36605234 0.49094992 0.09383516
N -0.17100793 -0.10898880 1.44658629
C 0.56336668 -1.02384660 0.90350837
C 0.48313655 -0.55004485 -0.52250842
N 0.91428348 0.89915665 -0.40993820
H -2.24637060 0.69028389 0.13229340
H 1.11293605 -1.80412514 1.42001772
H 0.73226388 1.33262216 -1.31991303
H 0.46834372 -1.06546204 -1.47376956
