10

O 1.2872809 1.866858 -0.8204487
C -0.14553924 -0.7929708 0.8905101
N -0.44340065 0.29616708 -1.0036497
C 0.63786805 0.92604864 -0.40765664
C -0.9169309 -0.7462111 -0.21021378
N 0.7995075 0.22335981 0.77406764
H -1.7554352 -1.3592811 -0.5014748
H -0.80967027 0.59393007 -1.8904904
H 1.5288471 0.44544402 1.428773
H -0.18252715 -1.453345 1.7405833
