11

C -0.49325103 0.8747194 -0.48261026
N 0.49524167 -1.0999508 0.85325015
C -0.17608981 -0.23911351 1.5047426
O -0.59129524 0.91026586 0.93554705
C 0.71690273 -0.59443617 -0.47331724
O -1.5427674 0.5198826 -1.1521983
H 1.6678575 -0.071979046 -0.5998688
H -0.44755185 -0.2705008 -1.1162354
H 0.6842564 -1.4049802 -1.2184923
H -0.44530174 -0.34199175 2.551462
H 0.13199872 1.7180847 -0.80227935
