12

C -0.05744657 0.01871649 0.00646511
N -0.94602358 -0.65422134 -0.82510590
C 2.04030600 0.52591543 0.86211163
N 1.18139287 -0.21039818 -0.04425314
C -2.30112822 -0.46056608 -0.83195182
O -3.06625079 -1.05168490 -1.55782721
H -2.62321646 0.30009867 -0.09766282
H 2.79578057 1.06358646 0.27964761
H -0.54365922 0.73870294 0.67921692
H 2.57449308 -0.18336619 1.50148832
H 1.50842935 1.24739328 1.50076751
H -0.56267698 -1.33417650 -1.47289664
