10

O 0.03793824 -2.5505092 0.51913536
C -0.23925054 -1.9912056 -0.5094916
O -0.23535958 -0.66801786 -0.6972486
C 0.13430417 0.09700579 0.46316934
C 0.10138066 1.5128907 0.1120065
C 0.087396 2.6861238 -0.14142585
H -0.5343327 -2.4912236 -1.4437155
H -0.5636208 -0.121661015 1.2776235
H 1.1357516 -0.20369312 0.7889277
H 0.075792916 3.7302904 -0.36898097
