10

O 0.6229528 0.026896067 2.1581967
C 1.0095202 0.6321755 -0.16403946
O -0.863711 -0.34989676 -1.0235971
C -0.9257821 -0.620022 0.38057965
C 0.25940517 0.36086115 -1.2432178
C 0.32041827 0.03234568 0.98836976
H -1.848097 -0.19193923 0.7817255
H 0.4192869 0.6304487 -2.282481
H 1.9387964 1.1822866 -0.12793663
H -0.93279 -1.7031558 0.53240013
