13

N -0.42505684 1.5840192 -1.1819166
C -0.29580912 -0.69521606 -0.04334513
C -0.15657368 0.8489144 0.028490115
N 2.2694438 -0.045336816 0.10100876
C 1.0153687 -0.02658168 0.046099175
N -0.7798785 -1.3768865 1.1276821
H 2.61862 -1.0092494 0.09900495
H 0.21895331 2.36151 -1.2724365
H -0.32113063 -2.2744524 1.23496
H -0.43362182 1.2601565 1.0019183
H -1.363555 1.9686776 -1.1557664
H -1.7763227 -1.5458968 1.0545919
H -0.5704373 -1.0496583 -1.0402907
