13

N -0.05700544 0.14821200 -2.01531657
C -0.13993062 -0.61561498 0.41730652
C -0.27191696 0.51477661 -0.63800393
N -1.00427142 -0.56025226 1.56628540
C 0.87294255 0.44584683 0.27017986
N 1.95002314 1.00462904 0.59225286
H -0.94698068 0.01761045 -2.48469065
H 0.12762175 -1.57875533 -0.02510372
H 0.43789875 0.88595373 -2.50341681
H 2.39512678 0.51215974 1.37354170
H -1.02052885 1.26477749 -0.37245340
H -1.82022557 -1.14455057 1.42620686
H -0.52275363 -0.89479243 2.39321114
