10

O 0.19406355 0.80857588 -1.86489638
C 0.09719639 -1.13787774 -0.40984065
C 0.07972046 0.33902306 -0.76317043
C -0.11344825 1.05588420 0.56139354
O -0.07369256 -1.16296658 1.03008429
C -0.20014239 -0.00506532 1.63444736
H -0.72345831 -1.69367658 -0.87212189
H -1.01832360 1.67500352 0.56508466
H 0.71401656 1.74182024 0.78330334
H 1.04406814 -1.62072060 -0.66428393
