10

O -0.5643315 1.4797906 -1.2888149
C 0.003218666 -0.8475019 -0.86828125
C 0.4257253 -0.6699305 1.4427238
C 0.04314693 0.7124862 0.96614
O 0.38450995 -1.4551233 0.39212722
C -0.23113392 0.612956 -0.5240068
H -0.89679825 -1.3443778 -1.241342
H 0.8128642 -0.9856743 -1.5892717
H -0.82926375 1.0777836 1.5207382
H 0.8520624 1.4195917 1.1899877
