9

O 2.503624 -0.3063222 -0.049203288
C 1.4281254 0.22015636 -0.13199078
C 0.21142541 -0.23511943 0.6633615
C -1.0245183 -0.094754785 -0.1063611
C -2.0142028 0.038502388 -0.7781579
H 1.2564858 1.0992657 -0.78821224
H 0.160907 0.3944554 1.562198
H 0.37467927 -1.2653722 0.99680793
H -2.8965259 0.14918874 -1.368442
