9

O 2.5044668 -0.31203482 -0.050713986
C 1.4299408 0.21788515 -0.13313282
C 0.21032803 -0.23262839 0.66449517
C -1.0258205 -0.09326822 -0.10724273
C -2.0136936 0.037577193 -0.7787577
H 1.2572856 1.0968907 -0.78628635
H 0.16187789 0.39992666 1.5613006
H 0.37214744 -1.2607062 1.0011537
H -2.8965323 0.14635777 -1.3708161
