9

O 1.1422015 1.2829565 0.80694884
C -0.8758134 -0.081931055 -0.43052697
C 0.8528087 0.32147527 0.14549239
C -0.6210225 -0.7302064 0.76617324
C -0.2613318 0.5737472 -1.3083411
H -0.90590477 -0.24221246 1.6937155
H -0.5518298 -1.8147279 0.7704902
H 1.4737856 -0.4905776 -0.25117758
H -0.25289342 1.1814765 -2.1927745
