11

O 0.80522551 1.83349115 1.34470247
C -0.27891072 -1.13750746 -0.32531609
N -0.14319599 1.09677335 -0.62230978
C -0.53362272 -0.13820103 -1.17074885
C 0.39240415 0.94217271 0.63875711
C 0.34064887 -0.56234682 0.91894364
H -0.97443272 -0.16434486 -2.15816748
H -0.23827265 1.99399979 -1.07167691
H -0.47839150 -2.18474586 -0.49498325
H 1.35318393 -0.93246948 1.11500022
H -0.24463623 -0.74682146 1.82579914
