11

O -0.8921952 -1.2398102 -2.0114195
C -1.0987277 -0.32728386 0.24798964
N 0.7465832 0.05748107 -0.95760995
C 0.99145067 0.7034601 0.19398521
C -0.53017694 -0.6089033 -1.0240338
C -0.09995869 0.46126613 1.0490913
H -0.0113395145 -0.6703481 1.3129417
H 1.8921609 1.2733905 0.3717968
H -2.0484989 -0.6744826 0.6216258
H -0.3404854 1.0523968 1.9263932
H 1.3911874 -0.02716676 -1.7307606
