11

O 2.3956926 -0.25312138 -0.12202015
C 1.1934271 -0.1210088 -0.103776515
N 0.39527664 0.13583985 -1.1983281
C 0.23475465 -0.19477445 1.0879734
C -0.9595529 0.23879316 -0.8347106
C -1.1166244 0.056746736 0.47694322
H 0.7611024 0.23889653 -2.1318893
H -2.0500917 0.082432106 1.0184844
H 0.32257783 -1.1762193 1.5672534
H 0.5227177 0.5499865 1.8372296
H -1.6992804 0.44242904 -1.5971594
