10

N -1.4402225 1.2349191 -0.5695133
C -0.498864 0.6340572 0.015682658
O 0.03137126 1.0813023 1.174825
C 0.14500304 -0.6431666 -0.4949755
O -0.25053406 -1.1428338 -1.5292273
N 1.1407831 -1.12715 0.28071877
H 1.409589 -0.6747086 1.1380527
H -1.6824942 0.72785753 -1.4197419
H 1.595153 -1.9817649 -0.00074916723
H -0.4497848 1.891488 1.404928
