10

N 0.8241076 -1.5077881 -0.4534197
C -0.2027672 -0.6482807 -0.36141858
O -1.3340927 -0.81936383 -0.77900463
C 0.20240584 0.6468855 0.36235318
O 1.3333983 0.8173828 0.78120494
N -0.82449263 1.5064374 0.45476034
H 1.7123275 -1.2307419 -0.061611988
H 0.70264614 -2.3959916 -0.90783334
H -0.7017972 2.3968956 0.9055252
H -1.7117356 1.2345644 0.059444614
