10

N 1.6104293 0.273131 0.590007
C -0.6576915 0.12922038 -0.105830684
O -0.9413379 1.2627575 0.4343929
C 0.71321964 -0.50074834 -0.05211424
O 0.9205902 -1.5889573 -0.5526129
N -1.7272819 -0.32939392 -0.6734773
H -2.0507114 0.85310805 -0.11748792
H 2.5603116 -0.05322887 0.6801764
H 1.3314526 1.1628637 0.96937805
H -1.7589802 -1.2087524 -1.1724313
