11

C -0.8213409 0.7480927 -0.83616936
C 0.49913692 0.625386 -0.12691417
O 0.49105412 0.6833828 1.2898341
C 0.86732316 -0.5453963 0.69325095
C -0.05240333 -1.6590418 0.85587335
N -0.77141315 -2.5566976 0.963969
H -1.1515889 1.7913594 -0.83447087
H -0.72309774 0.4253894 -1.8773884
H -1.5889161 0.14101738 -0.34761983
H 1.3353916 1.1623772 -0.57839817
H 1.9158545 -0.8158692 0.7980332
