10

O -0.952955 1.8535056 0.9961426
C -0.29664856 1.1063342 0.025916794
C -0.14106123 -0.3387438 0.46592158
O -0.5670243 -0.70847887 1.5383022
C 0.537783 -1.2341526 -0.45810127
C 1.1033688 -1.9473885 -1.245746
H -1.1499084 1.2424598 1.7254442
H 0.7067338 1.5069413 -0.18257475
H -0.843539 1.1123484 -0.9292994
H 1.6032507 -2.5928261 -1.936006
