10

O -1.5334677 -0.5537605 0.44196805
C -1.7633941 0.83691937 0.076288395
C 1.7671192 -0.5488399 -0.16674717
O 0.52201563 -0.1398165 -0.060258154
C -0.36426827 -1.1245437 0.40370947
C 2.9229674 -0.8472964 -0.28608015
H -1.4880784 0.9996647 -0.9693428
H -2.8303125 0.9819073 0.22544156
H 3.951002 -1.1005492 -0.39305386
H -1.1835829 1.4963148 0.7280747
