9

O 0.64755857 -1.732561 1.0052584
C 0.17105114 -0.6337191 0.41912976
N -0.08576736 0.4572989 1.142125
N -0.11418024 -0.5472144 -0.88247323
C -0.48264188 0.7282593 -1.0079339
N -0.5497388 1.4078103 0.13847148
H 0.71606547 -2.4089427 0.31897414
H 0.44690824 1.5450289 0.81941307
H -0.7492552 1.1840397 -1.9529648
