11

N 2.0929937 -0.550981 -1.242069
C -1.1280929 -0.24748695 0.11317004
C 1.0586172 -0.27228758 -0.55332726
C 1.1208913 0.536107 0.6977063
C -0.31465095 0.7230591 0.97867745
O -0.206852 -0.67498803 -0.88883936
H -0.42226866 1.7646966 0.61131847
H 1.8301901 -1.110459 -2.0534592
H -0.57541865 0.75489223 2.0397274
H -1.4628484 -1.1223955 0.68156666
H -1.9925611 0.19984289 -0.38447165
