11

N 2.03708851 -0.98520051 -1.05194506
C 1.13303012 0.80483803 0.31477073
C -0.28992323 1.06459744 0.60183559
C -1.10452928 -0.19844969 0.29543803
C 1.03468403 -0.46061032 -0.46717131
O -0.22674398 -0.99339312 -0.50018921
H -0.48527086 1.54019104 1.56645477
H -1.35749270 -0.75437275 1.20514127
H -2.02032971 -0.02337395 -0.27527604
H -0.47395221 1.84802615 -0.16230816
H 1.75343890 -1.84225236 -1.52675075
