11

N 0.5635872 -1.4123822 -1.3657049
C 0.17457747 -0.44225937 -0.45045698
C -1.021976 0.1031218 -0.106999196
C -0.7130936 1.1315929 0.8548313
C 0.6290206 1.1205666 1.0123576
O 1.1877097 0.15392718 0.21134754
H 1.4312953 -1.8591383 -1.1041691
H -0.16201524 -2.096875 -1.5344343
H -1.9957923 -0.17088905 -0.48429072
H -1.4148264 1.7842977 1.3545741
H 1.3215135 1.6880379 1.6129448
