10

O 2.75297163 -0.95592376 0.13457340
C 1.76595671 -0.60123734 -0.36766774
C 0.65137152 -0.21082092 -0.95977818
C -0.36837542 0.58135359 -0.21429049
O -0.09389148 0.83835158 1.14857877
C -1.20175192 -0.00147551 0.84686838
H 0.50549172 -0.46056124 -2.00319067
H -1.06403937 -1.05065084 1.10343473
H -0.76846092 1.43726597 -0.75826219
H -2.17927260 0.42369845 1.06973349
