11

C 0.39751717 1.4900595 0.28160757
C -0.35936064 -0.6497995 -1.0357008
C 0.9868294 -0.83345944 1.0490949
O -0.9644333 0.60836 0.96928513
C 0.13739672 0.032300856 0.22118787
N 1.6710373 -1.5257692 1.6660724
H -0.37595364 1.3535416 1.4908549
H -0.05170962 1.9660258 -0.6003947
H -0.87788934 -1.5827923 -0.796388
H 0.4864715 -0.8772638 -1.6899743
H -1.0499055 0.01879676 -1.5556446
