10

C -1.0829961 0.24405377 -0.2527722
C -0.31910685 -0.59633166 -1.0494206
N 0.9497706 -0.8909551 -0.7639321
C 1.4439366 -0.3261885 0.3353376
N 0.8126508 0.49428684 1.1754472
C -0.45421878 0.77071196 0.8690589
H -2.11341 0.47880542 -0.49136892
H -0.7327396 -1.0525658 -1.9470356
H 2.4788005 -0.55966145 0.57670414
H -0.9826868 1.4378443 1.5479816
