9

C 0.77590656 0.12024488 -1.6551238
C 0.15380761 0.023844812 -0.33348483
C -0.34998262 -0.045684725 0.75868976
C -0.97390705 -0.15119946 2.0677264
O -0.6568027 0.51705575 3.02369
H 0.81224495 1.1611077 -1.984395
H 0.21998791 -0.4607771 -2.3963718
H 1.8013018 -0.25972208 -1.6171576
H -1.7825565 -0.9048697 2.1364267
