9

C 1.23090208 0.14974631 2.00707967
C 0.49864383 0.28222053 0.94094315
C 0.04418421 -0.38909649 -0.11343141
C -0.81377917 0.19629628 -1.18936757
O 1.84359351 0.22285651 3.00075735
H -0.32308101 0.07677021 -2.16229859
H 0.29736920 -1.44572206 -0.22777782
H -1.01302755 1.25455479 -1.01173927
H -1.76480513 -0.34762599 -1.24416567
