11

O -0.8125432 2.1601202 -0.698797
C -0.42080325 1.0851388 -0.30939895
C 0.34648147 0.0014218377 -1.0769691
C 0.54377073 -1.0864352 -0.056646965
C -0.016744513 -0.6966142 1.0901096
N -0.5881956 0.5782457 0.964327
H 1.283115 0.42076614 -1.4608598
H -0.24009235 -0.30961725 -1.9478197
H 1.0529972 -2.0225823 -0.23350024
H -0.07599054 -1.212254 2.0404375
H -1.0719948 1.0818108 1.689118
