10

N -1.0501504 0.26427716 0.36169535
C -0.66082793 -0.9668162 -0.0999059
C 0.6679465 -0.8870263 -0.43870488
C 1.0943886 0.44383132 -0.1703231
C 0.012137111 1.1302034 0.32268968
H -1.9738814 0.49600512 0.6839173
H -1.3584884 -1.790831 -0.1455208
H 1.2742904 -1.6892606 -0.83533704
H 2.0870364 0.8436453 -0.32502237
H -0.09245098 2.1559715 0.64651173
