10

O -0.5631469 0.8713981 -1.1497865
C -0.87747926 -0.5872201 0.31683514
C 1.0724165 -0.07367401 -0.25505167
N -0.13237484 0.6983248 0.18088262
C -0.09736772 -0.77936316 -1.0383577
H -0.19117375 1.5474375 0.7644788
H -1.9564216 -0.4364263 0.2589887
H 1.5587147 -0.6156565 0.56432533
H -0.5697269 -1.176343 1.1873124
H 1.7565597 0.55152255 -0.8296272
