14

C -2.10180264 -0.12002310 1.50423832
N -0.70370465 0.04047268 1.15500235
C -0.31182086 0.08089906 -0.15356537
O -1.08100546 0.14393664 -1.09545399
N 1.07553826 0.07038822 -0.31197157
C 1.68489965 0.08254926 -1.55231079
N 2.95198860 0.10320730 -1.64036758
H -2.30494703 0.38559871 2.45138789
H -2.38627618 -1.17614404 1.59199441
H -2.70258700 0.33672805 0.71679431
H 0.96525010 0.06725934 -2.37182662
H 1.70679862 0.11182764 0.47782704
H -0.02406172 -0.23736318 1.84499232
H 3.23173064 0.11066341 -2.61674085
