9

N 0.39067182 -1.5081441 -0.01792173
C 0.86477923 -0.108614236 -0.09341018
C -0.07701816 0.7851291 -0.50328267
C 0.34476042 -0.84084123 1.2167267
N -0.9075694 1.5383906 -0.970952
H 1.9202608 0.10670716 -0.23071289
H -1.3559465 2.2479625 -0.39862475
H -0.68593675 -0.56354964 1.5154043
H -0.4940014 -1.6570401 -0.51722676
