9

N 0.6719889 1.2964524 0.4768225
C -0.7349122 -0.4739959 -0.95882195
C 0.5479717 -0.14499788 0.6369133
C -0.5223319 0.6294439 -0.07151195
N -0.8805778 -1.651023 -0.7593035
H 1.289209 -0.6160069 -0.012392488
H 1.382718 1.5456781 -0.21197954
H -0.30887628 -1.5121986 0.47907794
H -1.4451897 0.9266478 0.42119575
