10

C -1.2217519 -0.38015187 -0.34966037
C -0.092118114 -0.8127852 -1.043039
N 1.1361784 -0.435349 -0.6986768
C 1.2215291 0.38156652 0.35086685
C 0.09349262 0.8126159 1.042366
N -1.1356862 0.43529347 0.69647926
H -2.2176576 -0.7012758 -0.64722496
H -0.1836463 -1.4799747 -1.8968681
H 2.2165296 0.699931 0.64826375
H 0.18313067 1.4801295 1.8974932
