10

C -2.30613058 0.27700865 0.08301459
C 0.97983616 -1.49634583 -1.49656386
N 1.09243563 -0.58916597 -0.67877216
C 1.16040320 0.23138205 0.29501945
C -0.01907475 0.80705586 0.91347966
N -1.20244273 0.48721389 0.56008834
H -2.90330111 -0.53683641 0.50127463
H 0.95876182 -1.21722940 -2.55516903
H 2.14079122 0.51553406 0.65826469
H 0.09872141 1.52138293 1.71936353
