12

C 0.557836 -0.64708143 -1.8494176
C -0.08121228 -0.74228764 -0.48064652
O -0.60819006 -1.7449175 -0.050658267
N 0.009883463 0.4180676 0.27019754
C -0.47456932 0.5387793 1.564484
N -0.34479573 1.6420555 2.17557
H 0.135818 -1.4245692 -2.485972
H 0.40174654 0.33372748 -2.310386
H 1.6372267 -0.81803817 -1.7599254
H 0.44927156 1.2434348 -0.115609154
H -0.938909 -0.37598276 1.9350258
H -0.744106 1.576812 3.107337
