12

C -1.0607868 1.45807 1.059319
C -0.08900883 0.62811905 0.43597996
O 1.036344 1.2642001 0.34757164
N 0.5292967 -2.3522062 -1.374409
C 0.7247783 -1.1801503 -0.9420151
N -0.22763166 -0.593436 -0.109303735
H 1.5789274 -0.52712685 -1.1304574
H -2.115047 1.3464904 0.81026417
H 1.2991594 -2.640601 -1.9729825
H -1.0618236 -1.1284478 0.0823654
H 0.25409698 2.141831 0.66887873
H -0.8683047 1.5832578 2.1247888
