10

N -1.2290963 -0.70470226 -0.29610747
C -0.6285862 -0.0073809726 0.6957701
O -1.119057 0.20145203 1.7844925
C 0.7653074 0.5555813 0.3809318
C 1.3068694 0.19183975 -0.92676824
N 1.6867038 -0.124017015 -1.9702333
H -2.1429071 -1.093791 -0.11643857
H -0.7865987 -0.87982696 -1.1837865
H 0.70376515 1.6459872 0.46342623
H 1.4435997 0.2148581 1.1687135
