9

O -1.3209724 -0.66117406 0.880546
C -0.5994543 0.29996404 0.15414134
C 0.86006755 0.19612075 0.339279
C 2.0426354 0.076773 0.5096401
C -0.92783594 0.23405953 -1.2953091
N -1.2003762 0.14909923 -2.4132068
H -1.0038937 -1.5396814 0.6347882
H -0.94659007 1.2685232 0.5295421
H 3.0964198 -0.023684343 0.66057926
