9

O 1.5238737 -0.56295145 0.505772
C -0.6546388 1.779777 -0.85999113
C 0.31306124 -0.5727239 -0.10291296
C -0.84599733 -0.9653543 1.2786758
C -0.24294348 0.7110133 -0.500469
N -0.9206803 -1.9012829 0.54368365
H 0.368557 -1.248248 -0.95375425
H 1.484187 0.029518107 1.2681074
H -1.0254189 2.7302523 -1.1791112
