9

O -1.4978957 -0.7804318 0.23070633
C 0.2709062 0.8269948 0.33244398
C 1.1658893 -1.9405982 -1.4465408
C 0.8396831 1.627751 1.0199907
C -0.4746289 -0.1572384 -0.4758316
N 0.4400179 -1.1232458 -1.019367
H 1.3502252 2.3452325 1.6254787
H -1.1333817 -1.1447626 1.0490459
H -0.96081555 0.3462987 -1.3159261
