12

N 0.59989643 1.1835108 -1.8055426
C 0.10883814 -1.0567617 0.76270664
C 0.18465424 0.5295458 -0.6419497
N -0.618965 -0.06739114 1.3048477
C -0.5812259 0.9944075 0.38799503
O 0.24750517 -2.2151816 1.4280474
N 0.61453694 -0.76155394 -0.40319002
H -1.0931035 -0.099646896 2.1912494
H 0.8900232 0.5133313 -2.5044343
H 0.80883443 -2.7773316 0.87815726
H -1.0702946 1.9370434 0.58054626
H -0.09069948 1.8200283 -2.1784332
