12

N -0.65216397 -0.12929816 -2.13974803
C -0.34176681 -0.06207415 -0.77843275
C -1.14537353 -0.26817857 0.30563005
N -0.32062342 -0.00340974 1.40977865
C 0.87953690 0.33096310 0.90950029
O 1.88226772 0.63801061 1.74860473
N 0.93135320 0.31227128 -0.39401787
H 0.18957958 -0.22733396 -2.69076572
H -1.31960650 -0.85359973 -2.36565142
H -2.18344377 -0.54183048 0.41676694
H -0.56171322 -0.05278259 2.38496774
H 2.64195368 0.85726234 1.19336762
