11

O -0.8128081 2.158399 -0.70188946
C -0.4202251 1.0835757 -0.31150904
C 0.347313 0.00088658975 -1.0775619
C 0.542091 -1.0869025 -0.055948723
C -0.015999932 -0.6939046 1.0902767
N -0.58724445 0.58105 0.96419543
H 1.2848424 0.41991228 -1.4581121
H -0.23820677 -0.312423 -1.9490081
H 1.0495187 -2.024333 -0.22824131
H -0.07336283 -1.2095046 2.0411966
H -1.0759177 1.0832441 1.6866024
