11

O 0.6344546 -0.6808298 2.020357
C 0.22926414 1.0183449 -1.0110888
C -0.7170163 -0.8196207 -0.08756593
C -0.69477826 0.038711328 -1.2354001
C 0.20953652 -0.3093343 0.78595066
N 0.78074807 0.79601645 0.23600101
H -1.3347185 -1.692236 0.06658695
H 0.5487611 1.8521061 -1.6165497
H -1.3042725 -0.07375793 -2.1194153
H 0.15838079 -1.4795744 2.2726388
H 1.4896405 1.3501745 0.6884854
