10

N 0.13364758 -1.3359817 -1.1736522
C -0.6112165 -0.6002618 -0.36578304
C 0.76128715 1.1473876 0.7360068
N -0.19568959 0.2548954 1.1787133
C -1.3831913 0.12058769 0.33341387
O 1.1297852 1.3314842 -0.4115452
H 0.3720443 -2.259585 -0.83168334
H 0.9185565 -0.8042404 -1.5376894
H -2.3827763 0.49890518 0.4867795
H 1.257553 1.646809 1.5854398
