10

N -0.31956807 0.68886286 0.6303407
C 0.13338718 -0.64569557 0.34734747
C -1.1268705 -0.6179752 0.6801689
N 1.326346 -1.1468158 0.019387787
C -0.4299964 1.5326345 -0.47381103
O 0.3957084 1.5949655 -1.3528761
H -1.9024506 -0.9293919 1.3532331
H 1.8558946 -0.5504979 -0.604559
H 1.3708577 -2.1334305 -0.18541095
H -1.3033084 2.207344 -0.41382107
