10

N -0.82206744 0.8725936 1.353738
C -0.1726177 0.17465177 0.35061055
C 0.34912047 -1.0680164 0.2115764
N 0.9860828 -1.1468112 -1.0288419
C 0.80925745 0.009332313 -1.5521805
O 0.11189324 0.8813104 -0.77249277
H -1.4970388 1.5391797 1.0070188
H -1.2318988 0.26730123 2.0510852
H 0.33239767 -1.904969 0.89335346
H 1.1348711 0.37542737 -2.5138671
