11

O 0.4635411 -1.094892 -2.338536
C 0.8099085 -0.14991914 -1.660702
C 0.26833948 0.10694875 -0.33657658
C 0.47240093 1.0740751 0.6228349
N -0.3128879 0.8401071 1.7123947
C -0.9888534 -0.2549241 1.4260114
N -0.67681736 -0.73589987 0.20496579
H 1.5658647 0.57600653 -2.016318
H 1.1421391 1.9217048 0.5828944
H -1.711771 -0.7316714 2.0738926
H -1.031864 -1.5515357 -0.2708614
