11

O -1.5797862 2.1741076 -0.78313875
C -0.3310783 -1.1099716 0.28750184
C 1.6259763 -0.32807797 0.368324
C -0.41411528 0.2598264 -0.004100739
N 0.9282763 -1.4773538 0.51199853
C -1.6067417 1.0329945 -0.4005743
N 0.820647 0.80447084 0.08648563
H 1.612552 0.20261139 -0.77775985
H -2.5568721 0.46279597 -0.323153
H -1.1441094 -1.8293723 0.3145915
H 2.6452515 -0.1920309 0.71982515
