11

N -0.78006818 1.09280546 1.30160054
C 0.10834455 0.11034933 1.25869329
C -0.45877649 0.48129398 -0.83873872
N -1.10704743 1.30578708 0.03027732
C 0.35577788 -0.32040805 -0.06565502
N 1.28661009 -1.28304588 -0.48819452
H 0.55265355 -0.25564509 2.17503194
H -1.77361020 2.02566121 -0.18827069
H -0.61491964 0.53363833 -1.90572271
H 1.09434336 -1.61812533 -1.42172056
H 1.33669251 -2.07231113 0.14269883
