11

O 0.45969775 -1.0915407 -2.334079
C 0.8079484 -0.14765583 -1.6617794
C 0.26512986 0.10724975 -0.33506376
C 0.47439083 1.0721697 0.6223991
N -0.30724177 0.8366339 1.7125067
C -0.98551166 -0.25776848 1.4251186
N -0.67788726 -0.73650545 0.20451376
H 1.562948 0.58191967 -2.0163786
H 1.1449599 1.9186357 0.5804596
H -1.708035 -0.7332452 2.0758593
H -1.0363992 -1.5498936 -0.27355635
