11

C -0.83931625 -0.13906524 -0.7121449
C 0.40303317 -0.9280116 -0.2918762
O 0.6617066 -0.43066376 1.0091192
C 0.3529875 0.9333375 0.9235188
O -0.7362168 1.0678831 0.030676303
H -1.764584 -0.6580394 -0.43673578
H -0.8613723 0.08094319 -1.7854612
H 0.24853252 -2.007074 -0.22952096
H 1.2515442 -0.7170924 -0.95953417
H 0.07085754 1.2942832 1.9162736
H 1.2128278 1.5034997 0.53568536
