11

O 1.3678505 1.2000126 -0.42425373
C 0.69679964 0.21493602 0.30910534
C -0.79356873 0.52458596 0.5879136
N -1.1126857 -0.7125719 -0.12537616
C 0.16818605 -0.9698699 -0.52577424
O 0.6619812 -1.7679862 -1.2811689
H 1.9758488 0.74882805 -1.0241606
H 1.2498157 -0.097629786 1.2044467
H -1.09811 0.5267184 1.6372104
H -1.1265148 1.4323233 0.07942106
H -1.9896029 -1.0993464 -0.43736312
