11

O 1.54604196 0.85301094 -0.36571696
C 0.12024047 0.15971288 -0.73915050
C -1.11151546 0.58186600 0.08980002
N -1.07744362 -0.77648134 0.68958214
C 0.20002291 -0.97997990 0.13081902
O 1.16175236 -1.68059819 0.44872753
H 1.94844285 1.04408293 -1.22300029
H 2.00210201 0.05521701 0.02141841
H -1.84818376 -1.42081689 0.58741264
H -0.94561943 1.34164740 0.86102236
H -1.99584053 0.82233931 -0.50091401
