10

O 0.8403189 0.36308396 1.0369219
C 0.74289805 -0.6814601 0.10690681
C -1.2204254 0.9378569 -0.19419818
O 1.0917702 -0.4079537 -1.1869109
C -0.47233453 -0.05830959 0.6353636
O -2.421574 0.92795295 -0.27054006
H 1.0500133 -1.660598 0.4876383
H -1.0634011 -0.5792935 1.388457
H -0.5905886 1.686217 -0.71299195
H 2.0433233 -0.5274956 -1.2906466
