11

C -0.10479132 -0.07074215 0.02612063
N -0.53507775 0.17284346 -1.2247578
C 0.4829604 1.0978972 0.49035057
C -0.30602586 -1.386249 0.70230305
N -0.13715081 1.5162629 -1.5148486
N 0.50427264 2.0146086 -0.4839431
H -1.3721956 -1.5920017 0.83775896
H 0.175119 -1.3871171 1.683476
H 0.8870861 1.3098364 1.4723932
H 0.2866269 0.52308834 -2.0933795
H 0.11917635 -2.1984267 0.104526736
