11

C -1.33609970 -0.80518138 0.72075474
N 1.48279235 0.89447803 -0.78251692
C 0.39833396 0.10531561 -0.98168389
C -0.13370266 -0.04030136 0.27223272
N 1.61996361 1.22026725 0.50361300
N 0.64890809 0.66096608 1.14615768
H -1.05237152 -1.61277622 1.40329132
H -1.85837257 -1.24505718 -0.13308899
H -2.03347541 -0.15191982 1.25258080
H 0.10930093 -0.26687394 -1.95241972
H 2.15472299 1.24108256 -1.44892081
