9

O 0.60859532 -1.69481613 -1.35808911
C 0.17084342 -0.77248857 -0.72617592
C 0.75923074 -0.17861950 0.55168039
O -0.14542303 0.88418450 0.87267906
C -1.07454337 0.84813192 -0.09263951
N -0.99961068 -0.02414168 -1.02576673
H -1.85105489 1.60230234 0.00690419
H 0.77408719 -0.89817319 1.37413361
H 1.75787539 0.23362066 0.39727404
