9

O 2.0450764 -0.20352753 0.15894677
C 0.06884976 -0.19512306 -0.92016405
C 0.8213324 0.16095388 0.23355515
O -1.2688497 -0.21789892 -0.4132044
C -1.1511818 0.19338267 0.8430588
N 0.03002016 0.47744784 1.3104104
H 1.3862499 -0.84057224 -0.7900096
H -2.0705087 0.24303174 1.4166409
H 0.13901162 0.3823056 -1.839234
