9

O -1.155238 -1.2878212 -1.0795149
C -0.3811055 -0.47349396 -0.34703422
C 0.47644818 -0.78939676 0.6545626
O 1.0306293 0.39452833 1.0830333
C 0.4732082 1.3320581 0.31533805
N -0.37647834 0.888199 -0.5561557
H -1.6366788 -0.72669685 -1.7040529
H 0.7933812 -1.6931679 1.1478543
H 0.77583385 2.3557916 0.4859695
