9

O 0.36058566 -1.6714188 -1.4708954
C 0.6934637 -0.34943745 0.5564971
C -0.9064277 1.0285678 -0.05468466
O -0.0255255 0.82965356 0.93569344
C 0.06390358 -0.73521316 -0.78015095
N -0.9457185 0.22744617 -1.0516114
H -1.5437762 1.8983433 0.08290013
H 1.753955 -0.10930896 0.4628439
H 0.54953986 -1.1186323 1.3194078
