11

C -0.06299234 -1.39675468 -0.76236604
C -0.04974486 -0.11043736 -0.00417750
C -0.82063470 0.27227026 0.99899578
O 0.97261125 0.71242232 -0.53422927
C 1.13388686 1.89563142 -0.03709252
N 1.32556355 2.96230484 0.36816648
H 0.90518921 -1.90026396 -0.68133405
H -0.25965687 -1.21277513 -1.82366592
H -0.83987278 -2.05078672 -0.36314511
H -1.58300755 -0.40956974 1.35682839
H -0.72134191 1.23795931 1.48201985
