10

C 0.17877724 0.83119901 -0.46365696
O -1.62129996 -0.73141000 -0.47668578
C -0.39848996 -0.30333998 -0.06243137
O 1.35871441 1.25130084 0.14907991
N 0.19378186 -1.21430221 0.79991466
H 0.98420677 -0.79467329 1.26993821
H -0.26764974 1.48508001 -1.20881508
H 2.08293799 1.11818992 -0.47821244
H -2.04117111 -0.01902517 -0.97505829
H -0.46980758 -1.62301920 1.44592707
