10

C -0.56931263 0.23408857 0.17431948
O 1.7589066 -0.31096673 -0.20458269
C 0.6398256 -0.378744 0.65170956
O -1.3186381 0.5014561 1.1858271
N -0.88892573 0.57893795 -1.0719833
H -0.26956108 0.24807157 1.7461015
H -0.19011743 0.42251423 -1.7838204
H 0.4320103 -1.385979 1.0310411
H 1.9936848 -1.1987406 -0.49784324
H -1.5878723 1.289362 -1.2307693
