10

C 0.31713673 0.76046056 -0.50887614
O 1.5427048 1.0215695 0.10267007
C -0.44186443 -0.23810709 -0.05261086
O -1.7132906 -0.4876442 -0.46652108
N -0.015858954 -1.1769471 0.8754934
H 2.2426517 0.7337546 -0.499784
H -0.008221099 1.4298718 -1.3014346
H -2.0057273 0.25059047 -1.0157473
H 0.82698095 -0.86218405 1.3362832
H -0.7445119 -1.4313644 1.5305272
