10

O -1.5116221 0.6028806 -0.41946504
C -0.90080404 -0.5420298 -0.31562367
C -0.11195681 0.90768754 0.4170979
O 1.6085446 -0.7965933 -0.074888475
C 0.53684753 -0.09094974 -0.55618745
O -0.3728949 0.11235604 1.4389198
H 0.044023126 1.9877493 0.5175661
H -1.41452 -1.5013132 -0.2919586
H 1.4225044 -0.8992489 0.8747076
H 0.6998784 0.21946138 -1.5901682
