10

O -0.12445563 -1.1801401 -1.0835432
C -0.06566225 -0.4802548 0.11444176
C -1.3117062 0.3744971 0.3333167
O -1.485924 1.0058023 1.3448333
C 1.1445348 0.4429998 0.14549237
O 1.9304202 0.45048296 -0.7702366
H 0.6718282 -0.9278635 -1.5804596
H 0.021489091 -1.1561178 0.9812935
H -2.0220106 0.37682992 -0.5166941
H 1.2414864 1.0937642 1.0315559
