9

N -2.250866 0.09788736 1.1999311
C 1.1229594 0.47565767 -0.6599353
C -1.1217779 -0.005719375 0.7081194
C -0.023487857 -0.08236058 0.03710144
N 0.9700349 -0.9789998 -0.45011193
H 0.95991564 0.8786166 -1.6550871
H 0.652837 -1.4361006 -1.3027464
H 1.9379594 0.9270351 -0.09656469
H -2.2475746 0.12398363 2.2192934
