9

N -2.52640908 -0.27103518 0.24415425
C -1.29765741 -0.13841591 0.23828067
C 1.19390173 0.55527349 -0.43482493
C -0.02229028 -0.06384100 0.06433450
N 1.22621828 -0.64996489 0.41945617
H 1.58461079 1.45317872 0.04105916
H -2.97496533 0.14838974 1.05820055
H 1.40188496 -1.48373324 -0.13778053
H 1.41470656 0.45014846 -1.49287985
