9

O 0.7537203 0.24610257 -2.0775275
C 0.2655372 0.109795205 -0.8370287
N 0.9901085 -0.31362212 0.17543568
N 0.07677876 -0.28186792 1.1797805
C -1.1044958 0.14762002 0.72187936
N -1.0273144 0.40985075 -0.56744844
H 1.684491 -0.012365812 -2.0519261
H 0.3438005 -0.55896926 2.111689
H -1.982626 0.25345656 1.3451463
