11

N 1.2354628 0.035072118 0.6377709
C 0.20714924 0.91258883 0.30786315
C -0.8961226 0.14983368 -0.43246517
N 0.13743518 2.1598282 0.5629158
N 0.8208457 -1.1433493 0.16857778
C -0.33033156 -1.2314523 -0.437984
H -0.70543474 -2.1614408 -0.83507794
H 0.9826183 2.4419854 1.0564221
H 1.4522326 -1.9231735 0.31665123
H -1.0516772 0.5458469 -1.4421785
H -1.8521775 0.21426107 0.09750449
