11

N -0.87670505 0.9876202 -1.3417505
C -0.28097358 0.23982881 -0.3108503
C 1.0164616 0.30367482 0.15582623
N 1.0785552 -0.5584612 1.2082665
N -0.07524905 -1.1776459 1.4523712
C -0.9099252 -0.70055765 0.5391485
H -1.5601678 0.4518085 -1.8606529
H -0.1963695 1.3685017 -1.9844775
H 1.8703171 0.8801406 -0.16648765
H 1.8720391 -0.7567781 1.7924469
H -1.9379832 -1.0381317 0.5161599
