11

N -0.1366051 0.16759884 1.8712391
C 0.74147254 0.0005770175 0.7186803
C -0.045826454 -0.615607 -0.25679788
N 0.3629022 -1.224609 -1.3774356
N -0.87944794 1.1248444 1.2038294
C -0.4622217 0.8940568 -0.06592444
H -0.31694055 -1.6460174 -1.9954067
H 1.2949415 -1.6149282 -1.4387562
H 1.8301629 0.10554974 0.777976
H -1.8399732 1.2616159 1.4883426
H -0.5484644 1.546919 -0.9257464
