11

N -1.5930414 0.5542304 0.14326568
C -0.28640845 0.108646855 -0.43071228
C 0.774269 0.54904646 0.535603
N 1.8085588 1.05649 -0.11360616
N -1.7237338 -0.6973147 0.54390734
C -0.6483764 -1.2918551 0.016342131
H -0.1686846 0.3271975 -1.5019476
H -2.484716 -1.0149564 1.1403785
H 1.8599849 1.1784331 -1.1274037
H 2.6031358 1.3996339 0.40482578
H -0.14098771 -2.169552 0.3893474
