10

N -0.6573491 -1.2214202 1.1889346
C -0.18051477 -0.30679068 0.25554103
C -0.78179985 0.7317405 -0.37598032
O 0.14344156 1.2679954 -1.250266
C 1.2325989 0.51651853 -1.0823683
N 1.1184201 -0.42860538 -0.21155967
H -1.3207846 -0.8400402 1.8482213
H 0.10216608 -1.6849706 1.6665653
H -1.7531453 1.196669 -0.35711896
H 2.096967 0.7689036 -1.681969
