10

N -1.66990184 0.32591942 0.59883921
C 1.22624704 -1.21820384 -0.06716265
C -0.46789091 0.56639523 0.01937946
O 1.67777243 -1.49492818 -1.14561427
C 0.41252242 0.99957619 -0.80453109
N 0.87131445 0.09299509 0.33499228
H -2.42241520 0.93810773 0.31652956
H 1.12360240 -1.95222084 0.75458573
H -1.60958369 0.19117586 1.60109914
H 0.85833291 1.55118329 -1.60811739
