9

O 0.045763675 -0.910289 -2.6196759
C 0.19377284 0.3613235 -0.7744765
N -0.36930242 0.1661871 -1.844521
N 0.77442527 0.7357917 0.24194524
C 0.3762457 0.33785704 1.5356352
N -0.80108804 -0.044145964 1.8035253
H -0.88156897 -0.24615255 2.7958727
H 1.2001436 0.44445196 2.2468765
H -0.53839177 -0.8450236 -3.3851814
