11

N -0.87363464 0.99067056 -1.3424317
C -0.28198078 0.2370759 -0.31272
C 1.0153221 0.2998056 0.1543425
N 1.0777944 -0.5589942 1.2088432
N -0.07787324 -1.1761287 1.4550786
C -0.9120907 -0.69990265 0.5404807
H -1.5592464 0.46008208 -1.8635349
H -0.18819496 1.362302 -1.9859805
H 1.8698099 0.87638 -0.16768362
H 1.8715177 -0.7561818 1.7928343
H -1.9414232 -1.0351088 0.5207716
