11

N 0.2768074 -0.5381463 -1.4113022
C -0.9060738 0.8708562 -0.26830426
C 0.022287676 0.310432 0.7228184
N -0.7771518 0.32071283 -1.4273444
N 0.24530686 0.5951577 1.9386606
C 0.73404086 -0.7860311 -0.04050507
H 0.4203395 -1.7701509 0.3290613
H 0.14551651 -1.3168604 -2.0365562
H -0.3493509 1.3609805 2.2485533
H 1.8207093 -0.70156026 0.046825223
H -1.6324316 1.6546097 -0.10190677
