11

N -0.46151617 -1.4508207 0.39638236
C 0.2951248 0.5849378 -0.19390988
C 0.40648112 -0.49226657 0.7731139
N 1.0255316 1.7453521 -0.48592937
N -1.146713 -1.1546005 -0.73137045
C -0.6969922 0.008819043 -1.1169823
H -0.32802266 1.2189416 0.51428896
H 1.7234232 1.8641493 0.25522846
H -0.73988277 -2.263944 0.91921806
H -1.0681509 0.49132717 -2.0105743
H 0.99071693 -0.5518958 1.6805347
