11

N 0.9497357 1.1458952 1.1195718
C 0.119845055 0.32254058 0.35749996
C -1.2024772 0.12838277 0.31386864
O -1.5086572 -0.73149645 -0.7371985
C -0.34868607 -1.0921164 -1.3597213
O -0.27746606 -1.8087326 -2.3214717
N 0.6644236 -0.469532 -0.656527
H 1.6105373 0.62198347 1.6823435
H 0.41991758 1.7629699 1.7198126
H -2.0252287 0.4972029 0.90430087
H 1.5980562 -0.37709746 -1.0224788
