11

N -0.7269195 -0.1925913 -1.6950355
C 0.9984547 0.39410418 1.2979801
C -0.14271188 -0.20402038 -0.5293719
O -0.28165942 0.68354183 1.548732
C -1.1126176 0.19209561 0.45447838
O 1.9473184 0.66554356 1.9763298
N 1.0859771 -0.27306002 0.026501948
H 1.9752519 -0.29503936 -0.44881845
H -1.669749 0.3613848 -0.95246065
H -0.37554127 -0.6815252 -2.5097027
H -1.6978035 -0.6504337 0.8313672
