11

N 1.18606375 0.69401461 1.52321344
C -0.39965236 -0.73947847 -1.31702600
C -1.03437707 0.52162402 0.48110977
O -1.45197927 -0.14116946 -0.71461331
C 0.45648967 0.26625147 0.58322467
O -0.45978256 -1.36657356 -2.33555189
N 0.73159165 -0.49151552 -0.54694650
H 2.16142930 0.41659071 1.41340389
H -1.25075734 1.58877047 0.39915736
H -1.57045280 0.10088697 1.33608505
H 1.63142723 -0.84940134 -0.82205640
