10

O 0.44055358 0.80253834 -0.59113044
C 0.18361948 0.08878911 0.5186948
C 0.78083247 0.5102888 1.8011874
N -0.5935539 -0.9317561 0.33171925
O 1.4996203 1.4716741 1.9272346
C -0.24285617 0.16378042 -1.5688026
C -0.87883407 -0.8984627 -1.0167973
H 0.4965164 -0.15251578 2.63662
H -0.16971694 0.5820508 -2.5601668
H -1.5161811 -1.636387 -1.4785589
