10

O 0.21415675 -2.8058515 1.6013288
C -0.42734757 -0.86522657 0.21372521
C 1.0133396 1.4134916 -0.33463258
N -0.963469 0.08842269 -0.44304353
O 1.5978884 0.5812143 0.33584756
C -0.36377504 1.1951537 -0.77368104
C -0.2581559 -1.930831 0.9330481
H 1.4967773 2.3571706 -0.636954
H -0.90458953 1.9277747 -1.3659148
H -1.4048247 -1.961319 0.47027618
