17

C -2.2055101 -0.30325276 -0.41697323
N -0.76409703 -0.14512564 -0.4154332
C 2.270417 0.6840725 1.8344523
O -0.6509291 -0.36259314 1.8531407
N 1.3042549 -0.27711263 0.6814474
C -0.10250566 -0.26891768 0.7714368
C -0.10689148 0.020100974 -1.7024025
H -0.81604093 0.47444397 -2.398627
H 2.697907 1.4049275 1.1295453
H -2.6852334 0.57982534 -0.8523963
H 1.4325502 1.1421641 2.3634548
H 1.7450181 -0.40788865 -0.21837357
H -2.5336504 -0.4244219 0.6143413
H 0.22461046 -0.93772423 -2.1299021
H -2.4945438 -1.1873795 -0.99934953
H 1.9331491 -0.68686944 1.5069202
H 0.7514956 0.69575113 -1.6212811
