17

C -2.4805143 -0.9275849 0.59599054
N -1.3223369 -0.42292866 -0.11909039
C -0.26430154 0.07122983 0.6237545
O -0.3490786 0.21712081 1.8375815
N 0.8552925 0.42129382 -0.09483416
C 2.0656042 0.76041305 0.6261721
C 0.9341868 0.34904838 -1.5397993
H -2.2665975 -1.834597 1.1770021
H -2.8330588 -0.16268851 1.2919123
H -3.2741106 -1.1406738 -0.12379797
H -1.0866772 -0.92892635 -0.9590734
H 2.8554988 0.012703551 0.46177018
H 1.8279793 0.79694414 1.6887912
H 2.4474185 1.7388756 0.3088546
H -0.020775396 0.63936067 -1.986457
H 1.6912313 1.0599487 -1.8860488
H 1.2202396 -0.6495392 -1.9027282
