9

O 1.6811624 0.9306151 0.606575
C 0.56414247 0.30840316 0.19337676
N 0.43215477 -0.24690448 -0.99850106
N -0.8087218 -0.728105 -0.9562659
N -1.4823076 -0.5298909 0.15587738
C -0.62611514 0.1383563 0.92547923
H 2.3262975 0.8896692 -0.111005746
H -1.2086285 -1.2190421 -1.7400471
H -0.87798446 0.45689875 1.9245113
