9

O -0.54300384 1.03042785 1.37249488
C -0.26848092 0.13203101 0.37647528
N 1.11547684 0.21442051 -0.02859920
N 1.33074955 -0.30546414 -1.13861089
N -0.86022943 -1.22562854 0.45227757
C -1.31200928 -0.42002558 -0.42274595
H 2.34179607 -0.20718940 -1.30534136
H -2.07809322 -0.37944269 -1.18086036
H 0.27379385 1.16087100 1.87490990
