9

O -0.70319295 -1.9559091 0.43010694
C -0.54638034 0.41020718 0.48972723
N 0.30711105 1.393279 0.49197203
N 0.32148725 -0.66360813 -1.3168486
N 1.0964735 1.6126653 -0.46420887
C -0.20442823 -0.8605013 -0.21401711
H -0.5874725 -2.6945648 -0.18379918
H -1.556411 0.58900994 0.84726506
H 1.8728133 2.1694217 -0.08019728
