10

C 0.36998338 -0.7080057 1.2261329
O 0.39900348 0.2763285 1.9169458
C -0.30639482 -0.773082 -0.12750937
O 1.0767395 1.2654343 -1.1145595
C -0.09646708 1.4074799 -0.9091952
O -0.92812806 0.45532012 -0.44885412
H 0.427847 -1.0549166 -0.88941336
H 0.8334748 -1.6654295 1.5438808
H -1.1008501 -1.5254408 -0.10190479
H -0.6752082 2.3223119 -1.0955231
