9

C -0.7273903 -0.9664778 -1.0225356
C 0.16969648 1.3938457 -0.4413785
C -0.44597414 0.22341812 -0.17608544
C 0.7463778 0.8123857 0.80859977
O -1.316675 -0.9017387 -2.0687726
H 0.40960813 1.1674845 1.7846179
H -0.24488762 -0.23108393 0.9409543
H 1.7647955 0.42743012 0.7772367
H -0.35555103 -1.9252636 -0.60263646
