9

C 0.13589244 0.13703908 -1.88288110
C -0.27450610 0.03050524 -0.65219054
C -0.64764697 -0.07526561 0.60035237
C 0.36550264 -0.09799775 1.68044757
O 0.07859549 -0.19673279 2.84795532
H 0.26924560 1.11134296 -2.34490290
H 0.34840409 -0.74690800 -2.47765578
H 1.41798774 -0.01456413 1.34065134
H -1.69347510 -0.14741908 0.88822379
