11

O -1.273548 -0.18018581 1.9316838
N -1.1660854 -0.7682568 0.6729349
C -0.23909408 -0.23057504 0.007901639
C 0.29618984 -0.46581116 -1.3771708
O 1.2566204 0.58865273 -1.1728393
C 0.7899629 0.85842663 0.16340555
H -2.0026898 -0.67315495 2.3290205
H -0.39306062 -0.24664547 -2.2003562
H 0.77616227 -1.4360826 -1.5465678
H 1.5622883 0.6793465 0.9205395
H 0.39325428 1.8742858 0.27144793
