11

O 0.64496994 0.8440108 1.2242802
N -0.62082297 0.13752148 -1.5849239
C 1.1930659 0.093139656 0.13316882
C -0.6822179 0.41437888 0.89850634
O -1.0849121 -0.70131296 -2.3251386
C -0.18883573 -0.42728204 -0.29181308
H 1.6827062 0.7376084 -0.6052168
H -1.1375011 -0.16327305 1.7104055
H -1.3309258 1.2531761 0.62390375
H 1.8870991 -0.682011 0.47641668
H -0.3626257 -1.5059562 -0.2595893
