11

O -0.03709470 0.91721093 1.33587071
N -0.38235219 -0.01706474 -1.66428142
C -0.91383993 -0.06857547 0.77758519
C 0.09158815 -0.43165659 -0.32964823
O -0.25948432 -0.89245039 -2.49225677
C 0.95625183 0.64905472 0.33782481
H -1.12674389 -0.87675305 1.48586882
H 1.15513833 1.52415494 -0.29062143
H 0.47650656 -1.45444212 -0.35260141
H 1.88973525 0.28011651 0.77697514
H -1.84970502 0.37040508 0.41528432
