10

C -0.75742168 0.46555878 2.61141014
C -0.49100084 0.25185641 1.46330329
C -0.12369676 0.00627105 0.10635962
C 1.14626058 0.09863480 -0.48642199
N 1.03408118 -0.22173748 -1.76761636
N -0.25394117 -0.48704129 -1.89616902
N -1.00184548 -0.37333888 -0.82699337
H -1.00723958 0.65354676 3.63125165
H 2.09424969 0.37192415 -0.05048085
H -0.63944624 -0.76567434 -2.78464347
