9

O 0.1732509 1.9848133 -0.06309141
C -0.07047746 0.6592835 -0.14301263
C -0.41656107 -0.043032452 -1.3637736
O -0.177043 -1.3486012 -0.94800246
C 0.35811135 -1.3509068 0.30340862
N 0.4613218 -0.2091895 0.8592803
H 0.62713057 -2.3153925 0.7148855
H -1.2636636 0.4280425 -0.23088364
H 0.30793065 2.1949828 0.8711894
