10

C 0.59512955 1.386892 -0.58160675
O -0.40409344 0.38476247 -0.3857177
C -0.028402876 -0.6241903 0.4305385
O 1.0524995 -0.71405447 0.962456
N -1.0598466 -1.5068614 0.5789117
H 0.8507832 1.8661671 0.36707354
H 0.14558363 2.110409 -1.263393
H 1.4959387 0.9552411 -1.0245296
H -1.8252978 -1.4644389 -0.07257621
H -0.8222939 -2.3939264 0.98884356
