10

C 0.70533574 0.02821678 0.47641325
O 1.6388673 0.043632723 1.23573
C 0.262613 -0.8487017 -0.55354947
O -0.5262028 -0.30399108 -1.5869477
N -0.6088061 0.71032506 0.87368536
H -0.9528217 1.4391173 0.25314203
H -0.6409422 0.9458205 1.8644925
H 0.0625941 0.05703507 -2.2598634
H 0.9439455 -1.6499143 -0.84778106
H -0.8845828 -0.42154044 0.54467857
