11

C 0.59729887 -1.07434227 0.63268123
C -1.25906891 0.17881580 -1.08225818
C 0.53967812 0.24292049 0.42442877
O -0.29522436 0.94165076 -0.36927468
C 1.46834208 1.12643453 1.10240077
N 2.21850552 1.81194587 1.65493697
H -0.76969921 -0.53594188 -1.75196182
H -0.08304001 -1.76424663 0.13952300
H 1.33720773 -1.48126158 1.30356166
H -1.92396442 -0.34812872 -0.38960423
H -1.83003532 0.90215342 -1.66443355
