11

C -0.43814093 -1.3810449 -0.56771827
C -0.51451844 0.014617796 0.03722875
C 0.8402901 0.64696795 0.22608685
O 1.8945216 0.14214645 -0.058404896
C 0.812818 2.010091 0.8189895
N 0.78329444 3.0670936 1.2800016
H 0.047094885 -1.358247 -1.5481412
H -1.4454658 -1.7893941 -0.6884666
H 0.13724703 -2.0558093 0.0715482
H -1.010307 0.00726758 1.0166082
H -1.1068338 0.6963107 -0.5877322
