11

C -0.5813504 0.6098113 0.22554073
C -0.68416506 -0.44387165 -0.6721302
C 1.5778913 -0.65214837 0.061683714
O 0.5327455 1.0220084 0.6473765
C -1.774139 1.2990069 0.7141075
N -2.726578 1.8344516 1.0979085
H -0.07074985 -0.33647987 -1.5624517
H 1.576337 -1.3719317 -0.7485151
H -1.6156863 -0.98525614 -0.8073619
H 1.4034026 -1.0666709 1.0474141
H 2.362292 0.09108009 -0.0035720428
