14

C -2.392871 -0.07693681 0.9716001
N -1.3509928 0.1407919 -0.013271509
C -0.034293544 0.036286365 0.34429157
O 0.35199115 -0.08003577 1.4913436
N 0.8436935 0.10272799 -0.7352229
C 2.2149272 0.004852672 -0.5922152
N 2.963019 0.10791654 -1.6145717
H -2.0389898 0.29672366 1.9339616
H -2.6470804 -1.1383704 1.0834061
H -3.2892594 0.47590575 0.6791487
H -1.5925682 -0.016188502 -0.978586
H 0.5177759 0.30363092 -1.6719228
H 2.5194101 -0.16418096 0.44264737
H 3.9352381 0.0068766093 -1.3406091
