10

O 1.841083 1.8523217 0.18690439
C 0.38509327 0.19535157 -0.66661036
C -0.8630636 -0.4522481 -0.26409975
O -1.2351193 -0.37740898 1.0507696
C 1.2736491 0.8086371 0.3709224
O 0.26150313 -1.2270019 -0.57825345
H -1.6852746 -0.52812773 -0.9826325
H 0.4813904 0.60843736 -1.670033
H 1.3772818 0.22604975 1.3053664
H -1.8365436 -1.1060107 1.2476662
