10

O -0.9451416 0.81649315 -0.43963885
C -0.082338914 -0.13369332 0.04106065
C 1.0827372 0.032775935 0.65543973
O -0.44202498 2.113265 -0.12779601
C -0.66749763 -1.4760616 -0.24010363
O -0.10052922 -2.5061245 0.022822132
H 1.487071 1.0143108 0.87191564
H 1.6273082 -0.8582453 0.9450784
H -0.28533134 2.4517393 -1.021814
H -1.6742527 -1.4544597 -0.70696396
