10

O -0.5658043 -1.8792757 -0.78685
C 0.21200362 -0.9891581 -0.047167536
C -0.3167216 0.4211465 -0.1450895
O -1.294101 0.6968454 -0.80913836
C 0.40462905 1.5233283 0.60856307
O 1.3782127 1.3148911 1.2835487
H -1.2676542 -1.3600174 -1.2040913
H 0.24281885 -1.2698228 1.0174176
H 1.2568958 -0.98406595 -0.39368206
H -0.05027889 2.526129 0.4764894
