10

C -1.089728 0.8831214 -0.21285485
C 0.8316424 -0.887639 0.62876683
N -0.859247 0.6159524 1.0421772
C 0.26408383 0.2608235 1.5066504
C -0.019834783 0.4661092 -1.1244258
N 0.82708865 -0.4220756 -0.7495354
H 1.8667924 -1.0855637 0.91755
H 0.25624517 -1.8208817 0.6948315
H -2.0714993 1.2037358 -0.5396119
H -0.0055435435 0.78641766 -2.1635478
