10

C -0.58022654 0.42225963 -1.1564275
C 0.7703137 0.5736873 -0.757318
N -1.5109278 0.012886055 -0.3017076
C -1.0686976 -0.77369905 0.7246465
C 0.33560959 -0.68721163 1.0668709
N 1.2403538 0.06040577 0.34849614
H -0.9038981 0.72683984 -2.1497943
H 0.73906004 -1.3967705 1.7911868
H 1.4624429 1.1513824 -1.3672152
H -0.48403034 -0.08977998 1.8012623
