10

O 2.3647773 -0.39856508 0.27445164
C 1.1746638 -0.19572103 0.13537405
N 0.33228865 0.5724734 0.92252356
C -0.97620827 0.55116767 0.43454984
C -0.9789751 -0.22369622 -0.6618898
N 0.32834765 -0.6775206 -0.84844345
H 0.6607938 1.0597215 1.7377304
H -1.7767699 1.0910462 0.9124354
H -1.7818031 -0.49373403 -1.3268394
H 0.652885 -1.2851716 -1.5798923
