10

O -0.4281948 -0.5976413 0.7971897
C 1.5616515 -0.043169 0.042389955
N -1.7606474 0.71658874 -0.56050587
C 0.93149775 -0.79854083 0.9586182
C -0.5055635 0.27545956 -0.21911745
N 0.62708676 0.6457601 -0.72587866
H -2.499241 0.040166955 -0.44219285
H -1.775465 1.1778523 -1.458442
H 1.226374 -1.4789727 1.7397978
H 2.6225019 0.06249619 -0.13185886
