10

O 0.19001433 0.63268293 0.86002571
C 1.29878228 -0.74576382 -0.44656094
N -1.85188473 0.66922168 -0.22407804
C 1.41512994 0.02464343 0.64892545
C -0.57484281 0.17054040 -0.14126800
N 0.00471610 -0.65613455 -0.95216013
H 2.19562335 0.26135787 1.35247176
H -2.28558776 0.88500745 0.66045748
H -2.43856057 0.12470029 -0.83936729
H 2.04660970 -1.36625549 -0.91844607
