11

O -1.50321 -1.0461346 0.38236928
C -0.16736878 -0.77167195 0.067774236
C 0.027969874 0.23265201 -1.0932963
N 0.76198643 1.0792545 -0.14844301
C 0.5048271 0.30378693 0.9469208
O 0.68177587 0.4423441 2.1311707
H -1.5645353 -1.1227617 1.3432237
H 0.43650112 -1.6829401 -0.03693228
H 0.62752664 -0.11430793 -1.9379544
H -0.91969436 0.65785176 -1.4334732
H 1.1142213 2.021927 -0.2213597
