10

N -0.530513 -1.3171685 1.8124839
C -0.53879285 -0.5046598 0.89114696
O -1.3526092 -0.49161154 -0.3767645
C -0.5200364 -0.04683558 -1.2716575
C 0.6143848 0.38759044 0.66040754
N 0.58861744 0.46779674 -0.8100527
H 1.2718079 0.9096313 -1.4063759
H 0.5237177 1.3908983 1.0908201
H 0.71080714 -0.6319473 1.7319137
H -0.7673836 -0.16369414 -2.321922
