11

N -0.6311674 -0.7131373 -1.938451
C -0.32495183 -0.27715576 -0.79898685
C 0.706614 -0.87532926 0.13290058
O 0.44112152 -0.24663922 1.371476
C -0.12918445 0.9884225 1.0497028
O -0.8486019 0.8117828 -0.16897438
H -1.3279443 -0.122571126 -2.3845038
H 0.5866327 -1.9544984 0.23681152
H 1.718741 -0.64839923 -0.23070565
H -0.8293934 1.2782521 1.8347044
H 0.6381336 1.7592729 0.89602643
