11

N 0.66506994 -0.064511225 2.145035
C -0.9719605 0.5252395 -0.9656153
C 0.5869984 -0.98667336 -0.23370571
O -0.024666058 1.2476674 -0.34394854
C 0.50522584 -0.33684525 0.9926183
O -0.5150563 -0.8990407 -1.0467812
H -1.9203124 0.50108546 -0.40862882
H 1.1429832 -1.9165857 -0.30891132
H -1.1383417 0.81839985 -2.0086858
H 0.6750398 0.8120116 2.6265783
H 0.99501956 0.2992523 -0.44795486
