12

O -0.6598042 1.493141 -0.81691736
C 0.18495229 0.41714764 -1.134553
C 0.47946504 -0.40235475 0.12136459
O 1.0386999 0.45032278 1.0853997
C -0.7900452 -1.0133003 0.67212224
O -1.1294317 -0.82731056 1.8157601
H -0.25704485 1.9199132 -0.04603805
H 1.1387674 0.7510323 -1.566876
H -0.32966906 -0.19631895 -1.882826
H 1.1654708 -1.2284731 -0.13208494
H 0.5332336 0.29119128 1.9008636
H -1.3745939 -1.6549904 -0.016215391
