10

N 1.5678271 0.7929653 1.1341641
C -0.6614134 0.70766824 -0.21179621
C 0.630434 -0.07119638 -0.21722297
C 1.729313 -0.38895595 0.9920767
C -0.6859411 -0.7773251 -0.06190357
H -0.9063445 -1.1797869 0.9210299
H -0.9559262 1.1444851 -1.1612881
H -1.0018758 -1.3960098 -0.8965179
H -0.8804648 1.3141254 0.65863794
H 1.1643916 -0.14597014 -1.1571798
