10

N 1.1963056 -1.0985855 0.39653176
C 0.0527234 -0.60204846 -0.25256726
C -0.86589533 0.3192729 0.50016034
C -0.0075594443 0.8558605 -0.608826
C 2.1519783 -1.5030124 0.9445366
H 0.848518 1.463802 -0.33394825
H -0.3872161 -1.3200804 -0.939805
H -0.47182882 1.1155753 -1.5560186
H -0.5847114 0.56641763 1.5190723
H -1.9323142 0.20279862 0.33086398
