10

N -0.82582873 0.9272995 -0.13653971
C 0.2721953 -1.2843286 1.1425691
O 1.2312042 0.43227094 -0.66282886
C -0.08524694 -1.0367857 -0.2308272
C 0.35846937 1.3235537 -0.46681207
N 0.5441026 -1.5394499 2.2374563
H 0.630351 2.3781528 -0.5779383
H -1.5735123 1.5804607 0.07255374
H 0.5742909 -1.5252427 -0.9382788
H -1.1260252 -1.255931 -0.4393542
