10

N -1.136778 1.7453805 2.6534529
C -0.72281754 1.2982525 1.6711384
O -0.16749524 -0.63728756 0.49559733
C 0.29629105 -1.2535007 -0.60833347
C -0.1926168 0.78392756 0.40772822
N 0.6687792 -0.62125933 -1.6306708
H 0.9838299 -1.2624637 -2.3543231
H 0.28309727 -2.3352277 -0.44817114
H -0.82699895 1.1058441 -0.4240089
H 0.8147092 1.1763341 0.23759101
