10

N -1.2279183 -0.7042503 -0.29301372
C -0.6286629 -0.0051617334 0.69777817
O -1.1221509 0.20134883 1.7846758
C 0.76364625 0.5566827 0.3791582
C 1.3055524 0.19122763 -0.92752934
N 1.6875622 -0.12634465 -1.9703935
H -2.1404068 -1.0957414 -0.11649495
H -0.78579146 -0.879812 -1.180613
H 0.7063059 1.646316 0.4599818
H 1.4418639 0.21573503 1.1664507
