11

C -1.1880965 -1.9552034 0.055388678
N -1.2264163 -0.23606588 1.6786484
C 1.191465 0.8126039 -0.8686841
N -1.5198644 -1.2558782 0.97569203
C -0.25978282 0.4681452 0.94926804
N 0.13265564 0.086448014 -0.19895937
H 0.83280253 1.1594112 -1.8429922
H 1.552904 1.6788981 -0.2986202
H 0.11820652 1.349811 1.4675548
H -1.665814 -2.2427688 -0.86913985
H 2.0319402 0.13459887 -1.048156
