11

C -0.48700330 1.69772808 -0.80147485
N -0.24203886 0.36283749 -0.29885449
C -0.25538806 -2.88314639 0.41889076
N 0.34782369 -1.94551882 0.75243113
C 0.60612248 0.25259917 0.63907489
N 0.95732646 -0.95777878 1.23297303
H 1.15261183 1.08634022 1.09245456
H 0.09877178 2.47708877 -0.28698076
H -1.55058903 1.93364569 -0.69415160
H -0.37638091 -3.75620090 -0.18318325
H -0.25125638 1.73240535 -1.87117937
