10

O -0.50335206 -0.07528174 -2.49493770
C 0.08901491 0.22322671 -1.49451511
C -0.36127637 1.18755370 1.45371415
C 0.04402097 -0.03317147 0.96094539
O 0.30290246 -0.36509627 2.13790696
C 0.29250203 -0.72570267 -0.32678199
H -0.35922310 -1.59799295 -0.42777450
H 0.53248904 1.23127912 -1.34627533
H -1.37048168 1.23014771 1.86699346
H 1.33340370 -1.07496200 -0.32927570
