10

O 0.6296417 0.8318 1.9254484
C 0.4118359 -0.74117464 0.006295409
C -0.4520001 1.7014506 0.74488324
C 0.16373895 0.4717976 0.822831
O -0.7634428 -1.4160496 -1.9737536
C -0.14232352 -0.56643456 -1.3965046
H -1.387545 1.8084967 1.2966135
H 0.07005994 0.4250683 -1.8510696
H 1.4975225 -0.8922972 -0.056243856
H -0.027487364 -1.6226571 0.4814998
