11

C 0.07459207 -1.4482104 0.60645914
C -0.0029587718 0.78109473 -0.6449141
C -0.5912044 0.84374547 -1.9804683
O 1.2780167 0.6081703 -0.21904644
C 0.1807613 0.051908813 0.5824462
N -0.75201774 2.0086608 -1.4248686
H -0.38573876 2.047231 -0.29851204
H -0.8978216 -1.7463968 1.0120374
H 0.17645177 -1.8522655 -0.40295112
H 0.86114484 -1.8699517 1.2389731
H 0.058774766 0.5760129 1.5308447
