11

C -0.5190401 1.1360421 0.47755194
C -0.12661253 -0.23276706 -0.030207487
C 1.2599455 -0.71334916 0.030108742
O 0.27990362 -1.182229 0.9391845
C -0.98868346 -0.77577 -1.0788321
N -1.6802267 -1.171154 -1.9160962
H -1.5268348 1.1123326 0.90404123
H 0.18154018 1.4541737 1.2538947
H -0.50684893 1.8671708 -0.33596182
H 1.6133761 -1.4432235 -0.6961431
H 2.0134811 -0.05122674 0.45245996
