11

C 0.41315746 1.8166051 0.4864899
C -0.35752702 -0.74167466 0.32537618
C 0.26760417 0.5320442 0.5377894
O 0.8391885 -0.5702659 1.135124
C -0.19211711 -1.5279105 -0.94582963
N 0.5989326 3.0275156 0.30602074
H 0.1430931 3.6052163 1.0166882
H -1.2409014 -0.9642076 0.9266327
H -1.0292645 -1.321109 -1.6188821
H -0.18433446 -2.5990918 -0.722908
H 0.74216855 -1.2571216 -1.4465014
