11

C -0.60325326 1.34147977 1.24255508
C -0.18414984 -0.81913386 -0.28086496
C -0.28295777 0.20039818 0.72365459
O 0.21441290 -1.02734266 1.10296934
C 0.91948729 -0.85191163 -1.30184594
N -0.79593884 2.48561395 1.67523856
H -1.10245993 -1.35106683 -0.53607956
H -1.73683684 2.60778161 2.05781142
H 0.58261172 -0.37058735 -2.22457235
H 1.18526698 -1.88851697 -1.52986903
H 1.80381756 -0.32671449 -0.92899679
