10

N -0.7876306 1.301701 -0.25910813
C -1.3391209 0.41221485 -1.1484467
C 0.9463526 1.3261806 1.4470377
N 0.3634792 -0.6028991 0.13555267
C -0.59373873 -0.89183605 -0.9316844
C 0.16436614 0.67311627 0.42913425
N 1.5724659 1.8523911 2.2582958
H -0.082882166 -1.1896422 -1.8528177
H 1.0518365 -1.2023652 0.56062514
H -1.295128 -1.6788611 -0.6385886
