11

N -1.5641847 0.27931237 1.4631642
C 0.2663857 -1.0155702 0.43148795
O 0.7950578 -0.8573762 -0.8747059
C 0.7135662 0.5059509 -1.1579851
C -0.68871325 0.14876273 0.5684938
O -0.41406733 1.0179373 -0.44137174
H 1.6111327 1.0445198 -0.82519054
H 0.54478985 0.64961976 -2.2264397
H -2.0704863 1.1551144 1.3555596
H 1.0504326 -0.95169985 1.1989518
H -0.24391323 -1.976571 0.5080354
