11

N 0.20071986 -1.7191691 -1.2566153
C 0.2598561 -0.5444005 -0.731232
O 0.8984196 -0.19305848 0.72539973
C -0.78445953 0.53348166 -0.65963477
C -0.014805792 0.51892316 1.4091147
O -0.80417264 1.2669826 0.37810257
H -1.3153465 0.91449904 -1.5293891
H 0.8765728 0.26584327 -1.3282138
H 1.0222869 -2.2611997 -0.9910908
H 0.41575986 1.3038672 2.03381
H -0.7548306 -0.08576878 1.9497489
