11

C -0.58884930 0.80927050 -0.96119643
C 2.43376594 0.69225163 1.20893076
O 0.25218760 -1.47070772 -0.36807714
C 0.36205370 -0.80038948 0.85859628
C -0.68151446 -0.42199121 -0.10163898
N 1.49527576 0.00917993 1.03797820
H -1.16169885 1.62486425 -0.50825488
H -1.00469473 0.60656577 -1.95149772
H -1.68624553 -0.78791301 0.11699895
H 0.45017344 1.12916545 -1.07573837
H 0.12954653 -1.39029580 1.74389934
