9

N -0.59519637 -0.5292649 -0.84285855
C -0.8064438 0.67345387 -0.2628414
C 0.05144082 0.81419516 0.8282377
N 0.8600294 -0.24862638 0.9381951
C 0.49659118 -1.0495739 -0.07694531
H 0.12560613 1.6512711 1.5123268
H 0.7725919 -2.09533 -0.16462345
H -1.5244476 1.3696414 -0.6729855
H 0.61982834 -0.5857664 -1.2585053
