10

C 0.10024511 -0.54662687 -0.08708155
C 0.3330762 0.3510772 -1.2635144
C 0.28361395 0.0812539 1.2195636
C 0.4413615 0.615636 2.2790601
N -1.2945989 -0.9658217 -0.33991453
N -1.6969683 -0.46309972 -1.3899298
N -0.69284254 0.39820614 -2.0159242
H 0.5731739 1.0865539 3.2274299
H 0.7094237 -1.456975 -0.15618016
H 1.2435155 0.89979625 -1.4735086
