10

C -0.9340146 0.37856266 2.366354
C -0.4764961 0.20939331 1.2663171
C 0.06699139 0.006639037 -0.03430329
C 1.3398066 0.11967304 -0.5477502
N 1.3051403 -0.19724557 -1.8664904
N 0.09102763 -0.49852014 -2.2023714
N -0.6642426 -0.3800623 -1.1109828
H -1.3317044 0.5306957 3.3462625
H 2.2554624 0.40482277 -0.051952098
H -1.6519705 -0.5739585 -1.1650836
