10

C -0.85207142 -0.06916365 -0.97639848
C -0.21391397 1.05229653 -0.41314800
N -0.41622916 -1.15604342 -0.27368271
N 0.78829769 -1.72579465 -0.17607571
C 0.37371705 -0.77132442 0.86460485
C 0.62437710 0.65127690 0.60927344
H -1.38887815 -0.17475603 -1.90706334
H -0.30434543 2.06033984 -0.79912948
H 0.13764520 -1.15924229 1.85416415
H 1.25140100 1.29241100 1.21745543
