10

C -0.22352424 0.97538054 -0.3685149
C -0.62698734 -0.03832445 -1.2353655
N -0.45362705 -1.3340285 -0.98890597
N 0.13080946 -1.711079 0.13656482
C 0.5387185 -0.79018056 1.0039123
C 0.3882007 0.5815955 0.8043233
H -0.38802183 2.018503 -0.6157218
H -1.1150119 0.18649098 -2.1800547
H 1.0097146 -1.1823297 1.9022123
H 0.739729 1.293972 1.5415503
