10

C -0.04698024 0.7964686 -1.0235204
C -0.5672767 -0.64355135 0.67026955
N 1.496341 0.76487094 0.8981754
N 1.1025523 0.496459 -0.34998885
C -1.0782758 0.0732068 -0.3946398
C 0.8955407 -0.54859865 0.615787
H -1.1254823 -1.2828977 1.3438718
H -0.09401796 1.6139214 -1.7270875
H -2.125571 0.15387878 -0.65916896
H 1.54317 -1.4237578 0.62630147
