10

N 1.2536534 -2.1027431 1.8729882
C -0.9670717 0.6854234 -1.2096919
O -0.6545243 -0.35111454 -0.4092228
C 0.47395146 -0.20684686 0.38234133
C 0.8175661 -1.1795392 1.1927576
N -0.29069734 1.7481588 -1.2664113
H 0.9066098 -2.1366236 2.829506
H -1.873166 0.43140483 -1.767181
H -0.70356184 2.3978307 -1.9292744
H 1.0372406 0.7140496 0.30418867
