11

O -1.2766223 1.2907575 -0.6717596
C 0.9538738 0.3986422 0.5528761
C -0.25444925 -1.0066469 -0.57164496
C -0.89264613 0.25286907 0.026438512
O 0.9320586 -0.9762239 0.20979445
H -0.8068792 -1.9419935 -0.4268608
H -0.054466136 -0.8360705 -1.6381223
H -0.07449694 1.2379404 -0.08658385
H -1.3354802 0.062738195 1.0228467
H 1.1065009 0.563305 1.6231834
H 1.7026067 0.9546825 -0.040167723
