11

O -0.98693794 -0.41519187 0.22076083
C -1.09322617 0.98755655 0.36321382
C 1.42607260 -0.60860478 0.16701979
C 0.10747217 -0.79109818 -0.56867743
O 2.48451222 -0.43415631 -0.38243426
H -1.22223978 1.47825230 -0.61264952
H -0.21324127 1.41870193 0.86370396
H -1.97442142 1.17612054 0.97920304
H 1.33688464 -0.68992102 1.27246110
H 0.14402042 -0.25914005 -1.53114148
H -0.00889539 -1.86251875 -0.77146000
