11

O -1.1205969 1.2529522 -0.48535776
C -0.6132268 0.73161054 0.7184215
C 0.46338844 -0.298579 0.45440966
C 0.42777413 -1.1360798 -0.7395615
O 1.2831538 0.0068829125 -0.67010057
H -0.34978908 1.4262227 -1.0430124
H -0.19480202 1.5247234 1.3571135
H -1.4488667 0.2716815 1.256293
H 1.0118029 -0.6511652 1.3287705
H -0.40642953 -1.0355719 -1.4300435
H 0.94759184 -2.092677 -0.74693257
