11

O 2.0615535 -0.9083827 -1.1968236
C -0.090228744 -0.96967256 -0.11124075
C 1.3947401 -0.66073024 -0.22386184
C -0.8937377 1.1883464 0.30232665
O -0.73132294 -0.12395771 0.8030986
H -1.408056 1.7600954 1.0769775
H -0.54980075 -0.9467587 -1.110701
H 0.07213115 1.6706126 0.089566685
H 1.8303497 -0.21507391 0.697117
H -0.18381415 -1.9868673 0.28770894
H -1.5018139 1.192389 -0.61416835
