10

O -0.4269962 -1.6119831 -0.5101645
C 0.25116873 -0.49040645 1.7523315
C 0.051767576 -0.62819064 -0.024128923
O -1.1882216 0.92560065 -1.3520316
C 0.005394495 0.7539587 -0.6548505
O 1.1978796 -0.7421252 0.94082916
H 0.08147156 1.541708 0.09890894
H 0.8882655 0.80849963 -1.3174322
H -1.4115818 0.06836688 -1.7427467
H 0.550852 -0.6254286 2.809285
