11

O -0.8594727 0.3933649 1.6069351
C 1.2321447 0.18630938 0.5400356
N -0.6046945 -1.1492741 0.09115908
C 0.013960728 -0.3910613 1.0726061
C -0.47651958 -0.14562036 -0.941385
C 0.86664176 0.37523693 -0.75808394
H -0.8637759 -0.36513782 -1.9360341
H -1.5699456 -1.2985212 0.3624182
H 2.015797 0.6701861 1.1050864
H 1.3953077 0.9584047 -1.5031687
H -1.1494434 0.7661128 0.36043087
