10

O -1.6818316 -0.59875745 -1.5296979
C -0.8031291 -0.26821744 -0.776967
C -0.37601468 -0.61845934 0.6609241
C 0.769336 0.4011771 0.4454842
N 0.24120301 0.6114613 -0.8992854
H -1.1113427 -0.35072708 1.4224732
H -0.065226756 -1.6569979 0.79043233
H 0.72388005 1.2889686 1.0824746
H 1.7779359 -0.019075634 0.4650989
H 0.5251898 1.2106278 -1.6609373
