9

O 1.56826266 0.82628088 0.31770051
C 0.37387488 0.23537058 0.15915997
N -0.05549384 -0.41208000 -0.94311617
N -1.31796912 -0.87857823 -0.76788146
N -1.68117264 -0.53189988 0.41657745
C -0.67954682 0.15547804 1.03280624
H 2.15510898 0.63805416 -0.42480464
H 0.40109698 -0.57329270 -1.82711612
H -0.76416110 0.54066714 2.03667420
