9

O 1.6775352 0.9324387 0.6044364
C 0.56198007 0.31034935 0.19328117
N 0.42933035 -0.2438968 -1.0002179
N -0.80862254 -0.72740316 -0.95556855
N -1.4771523 -0.532837 0.15739013
C -0.6231186 0.13632907 0.9264381
H 2.3206651 0.89225006 -0.11477718
H -1.2080122 -1.2192259 -1.7382365
H -0.8726051 0.45199567 1.9272543
