9

O 0.20120388 1.012668 -1.5779876
C -0.39144185 0.7511256 0.77543086
N -0.36199638 -0.26849973 1.6332195
N 0.5566662 -0.9391367 -0.30650574
N 0.23639368 -1.2861041 1.065159
C 0.12445851 0.3143798 -0.44257388
H 0.6650182 0.47801366 -2.236311
H -0.25849235 -1.7900457 0.048936613
H -0.7718098 1.7275991 1.0406322
