10

C -0.21655211 1.0101464 -1.4914672
C -0.18419512 -0.6177721 0.8457258
N 0.9102955 0.66869223 -0.7533035
C -1.3405119 -0.2933882 0.116687804
N -1.3665476 0.45767072 -0.96663564
C 0.9783991 -0.09708776 0.36298737
H -0.2096107 -1.2429736 1.7299957
H -2.3016624 -0.68741053 0.45363656
H 1.7759699 1.0559013 -1.1098653
H 1.9544156 -0.25377864 0.8122385
