10

C 0.75272417 -0.10463100 0.72174045
C -0.35388706 1.68709576 -0.56589476
N 0.55841753 1.18559108 0.35467872
C -0.95185676 -0.57816766 -0.81015786
N -1.11236462 0.68815385 -1.14034583
C -0.02274008 -1.05524336 0.12948610
H 1.51452626 -0.31096294 1.46744249
H 1.13539366 1.89102731 0.79730455
H -1.59738357 -1.29548025 -1.32138787
H 0.07717040 -2.10738282 0.36713412
