10

C -1.0389452 -0.023506327 0.82344455
C -0.279718 -1.4285059 -0.80776554
N -1.1845933 -1.165944 0.16624652
C 0.92877275 0.5978681 -0.34189904
N 0.7367957 -0.5309042 -1.0453496
C 0.0005026012 0.89893615 0.6255027
H 1.791773 1.213772 -0.5775196
H 0.7784475 -1.5489894 -1.6428156
H -1.7962613 0.18347825 1.5810118
H 0.06322629 1.8037953 1.2191439
