9

O -1.44079206 0.25782066 -1.04321896
C -0.45452152 -0.01562399 -0.12879522
N 1.79037844 0.01948161 0.02649243
N 0.84398513 -0.06655675 -0.76711762
N -0.71191695 -1.02011681 0.93180203
C -0.68778864 0.20351190 1.26159358
H 2.65038987 -0.06680875 -0.53723338
H -1.16000394 -0.12456114 -1.88579869
H -0.82973047 0.81285323 2.14227564
