9

O -1.5964614 -0.6391853 0.46242782
C -0.3735204 -0.33175325 0.04417239
N 0.6426984 -0.26717564 0.8981055
N 1.4704782 0.6832548 0.8475708
N 0.24787807 1.1771963 -1.4403089
C -0.25875908 0.05292142 -1.4100837
H 2.3031151 0.34965596 1.3545399
H -0.7597882 -0.55615 -2.1692615
H -1.675641 -0.46876433 1.4128376
