11

N -1.552636 -1.0192242 -0.18704721
C -0.4643772 -0.26259947 0.2676404
C -0.53018975 1.0348563 0.83002687
N 0.68757844 -1.1148466 0.6355154
C 2.004382 0.54468006 -0.33424732
N 1.679665 -0.5585925 0.11689585
N 0.028664622 1.0577593 -0.328429
H -2.3489685 -0.4499595 -0.43925497
H -0.6416689 1.6903511 1.6797633
H 2.4341052 0.7300966 -1.3096476
H -1.2965544 -1.6525213 -0.93121576
