11

N 1.0224752 -0.77272874 -1.141169
C -0.38676494 -0.03657552 0.47656718
C 1.9469169 -0.55169976 -1.8628917
N -1.4593959 -0.5576201 1.238538
C 0.2957675 1.1653779 0.84246767
N 0.20109656 -1.1164981 -0.29032552
N -0.45786166 1.3195302 -0.17347862
H -2.0609155 -1.1403513 0.6711852
H 1.9561076 -0.2675504 -2.9017503
H 0.9405123 1.7812986 1.457728
H -1.9979384 0.17681739 1.6831291
