11

O 1.018374 -2.4300969 -0.9433747
C -0.114260085 0.85324657 1.4688859
C -0.4784091 0.9114149 -0.6100905
C 0.5463622 -1.3726887 -1.2741488
N -0.6813044 1.6103175 0.5045249
C 0.20729478 -0.2825773 -0.3399575
N 0.50182194 -0.326808 0.97644395
H 0.32563916 -1.1366584 -2.336812
H 0.12744187 1.2160178 2.4640167
H -0.60830796 -0.3013775 1.6615835
H -0.84465235 1.2592101 -1.571071
