11

O 1.8230247 -0.5897569 2.1771946
C -0.5007003 1.3866996 -0.80704343
C 1.0492793 -1.052381 1.3810856
C -0.6435131 -0.7640255 -0.62075454
N -1.1237214 0.18324561 -1.3332059
C 0.3038844 -0.23122236 0.38007742
N 0.3954299 1.0392737 0.27967593
H -1.2725481 2.0782049 -0.44992206
H -0.92103803 -1.8074527 -0.7584664
H 0.82746863 -2.1408153 1.3462411
H 0.06243392 1.89823 -1.5948822
