10

O 0.7963858 1.9320923 -0.75471896
C 0.3561375 0.88939446 -0.37383878
C -0.92944056 0.44079143 0.32702407
N -0.508426 -0.9560216 0.09343774
C 0.8330047 -0.56570053 -0.38959888
H -0.95696706 0.76603246 1.3769985
H -1.8712518 0.72667855 -0.15418844
H -0.49153674 -1.5254622 0.9304562
H 1.6636368 -0.72958565 0.3106881
H 1.1084573 -0.97821945 -1.3662597
