10

O 0.45500606 2.1583025 -0.78899574
C -1.0803252 -0.14664407 0.23315245
C 0.87093794 1.0273819 -0.73539335
N 0.06833751 -0.09973181 -0.62745064
C 0.11389819 -1.0166558 0.48651972
H 0.7492928 -0.74879503 1.3287752
H 1.9427572 0.76183546 -0.8234867
H -1.9829144 -0.57393444 -0.1951745
H -1.2247453 0.71261007 0.88554466
H 0.08775548 -2.0743692 0.23650888
