11

N -0.73426664 -0.7572146 1.5596849
C -0.19451365 -0.13157585 0.42111677
C -0.12897366 -0.6127949 -0.86878914
N 0.40398318 0.39378524 -1.6169955
N 0.6923935 1.4811625 -0.90699095
C 0.33238903 1.1789783 0.3327995
H -0.22188717 -0.53033245 2.4011967
H -0.77646196 -1.7623557 1.4613132
H -0.41472214 -1.5602065 -1.3009298
H 0.5869118 0.393182 -2.6061943
H 0.45514768 1.9073714 1.1237884
