11

C -0.37000948 -1.6098266 -0.34132966
N 0.91038924 -0.25204247 0.688732
C -1.1811804 -0.6186629 0.19291574
C 0.6869894 1.4562217 -0.060738176
N -0.37237418 0.22236885 0.8697908
N 0.91309696 -1.335227 -0.059110623
H 1.3196487 1.1688625 -0.8978526
H 1.206723 1.9940006 0.7221014
H -2.2518828 -0.48177475 0.16003959
H -0.21811561 1.9631826 -0.3940486
H -0.64328504 -2.5071027 -0.8804999
