12

C 1.401082 -0.2941871 0.88296497
C 0.33647445 -0.5047103 -0.18637164
C -0.58924204 0.6966195 -0.31810367
O -0.2218339 1.8372777 -0.11536077
N -1.8682313 0.39654535 -0.6962042
H 2.112319 -1.1246839 0.8920998
H 1.9424171 0.63670886 0.6954874
H 0.94975907 -0.22053482 1.877889
H -0.24706036 -1.4126997 0.013209709
H 0.81217825 -0.6454948 -1.1659529
H -2.1428452 -0.5305552 -0.9669924
H -2.4850178 1.1657143 -0.91266507
