9

N 0.27545622 -1.5906581 1.2941501
C -1.1634632 0.4803526 -0.069265544
C 0.15596075 0.0054695844 -0.52273667
C -0.16660912 1.2886922 0.13392104
N 0.7568084 -1.10922 0.29406497
H 1.6538789 -1.4448321 -0.1115635
H 0.4632348 -0.076047085 -1.5665088
H -2.206603 0.23986897 0.018683698
H 0.23133633 2.2063737 0.5292546
