9

N 0.55976319 -1.07394647 -0.65031244
C 0.41774268 0.32953804 -0.12042840
C -0.32242447 0.55466789 1.13789591
C -0.96729451 0.80749051 0.03851468
N -0.35082010 -1.83164429 -0.89604589
H -1.86004855 1.11487735 -0.47355138
H 1.25634796 0.94786512 -0.44436572
H 1.55632213 -1.33030956 -0.80214678
H -0.28958835 0.48146128 2.21044014
