10

N -1.5633985 -1.0127736 -0.6678827
C -0.26732817 -0.6050944 -0.6573558
O 1.5079409 1.6433413 1.4025632
N -0.045205634 0.31416252 0.4106253
C 1.1389692 0.770706 0.47070172
O 0.57106733 -0.9720233 -1.45438
H 0.7254101 1.8176007 1.9487535
H -2.1801507 -0.7385723 0.07774721
H -1.8350234 -1.7253342 -1.3226337
H 1.9477187 0.5079873 -0.2081388
