10

O 0.8064983 1.088967 -0.7424499
C 0.28818583 -0.34161285 1.1227171
C -0.14085269 -0.99266785 -0.21422312
C -0.46813843 0.42782652 -0.6511374
O 0.73742133 -0.75928503 2.1452887
C -0.21972805 1.0596546 0.693829
H -1.0240022 -1.617058 -0.053696364
H -1.2007709 0.7254888 -1.3972661
H 0.6058199 -1.5384482 -0.79614246
H 0.615567 1.9471351 -0.10691961
