11

N 0.101980545 0.711569 -1.7201059
C -0.005068413 0.16900314 -0.4368422
C 0.890351 -0.5036008 0.3685624
C 0.12977222 -0.8593497 1.5077134
N -1.119268 -0.44128644 1.4322283
N -1.1811126 0.18395162 0.23525713
H 1.0454516 0.6296514 -2.0743237
H -0.18944977 1.6802279 -1.7701503
H 1.9324936 -0.70300585 0.16614355
H 0.4610052 -1.3995755 2.384675
H -2.0661557 0.5324153 -0.09315748
