11

C 0.33978602 -1.0173182 1.0031658
C 0.3100345 1.0290287 -0.4851776
O 0.50469935 0.22879167 1.382268
C -0.791095 0.15216671 -0.5861038
O -0.55662715 -1.1069207 -0.35468423
H -0.29370955 -1.6360251 1.6613207
H -1.8022473 0.5541589 -0.44944435
H 1.2917308 0.65681887 -0.76034844
H -0.39661923 0.6319273 -1.7627321
H 0.1654507 2.0898778 -0.3267776
H 1.2285967 -1.582506 0.6785138
