11

C -0.84051436 -0.14181177 -0.7110606
C 0.4042739 -0.9279217 -0.29263714
O 0.6611991 -0.4289146 1.0075489
C 0.3505883 0.9350059 0.9204615
O -0.7394778 1.0657725 0.032304753
H -1.7642651 -0.66224474 -0.43290687
H -0.8623636 0.0806004 -1.7833751
H 0.254839 -2.007225 -0.22828797
H 1.2518749 -0.71482134 -0.9615392
H 0.071517766 1.2956992 1.914042
H 1.2123278 1.5058612 0.5354495
