9

O 0.68684274 -1.9094489 -0.33503297
C 0.036300488 0.3974839 -0.80573136
N -0.13396353 -0.38400012 1.2706409
N -0.44282582 1.3262906 0.06528716
C 0.22537173 -0.6947796 0.004845803
N -0.5419667 0.85252917 1.3008968
H 0.69045365 -2.447667 0.46975416
H -0.70994884 2.280034 -0.114413835
H 0.18973625 0.57955796 -1.8562467
