9

O 1.2906438 -1.4210985 -0.52437454
C 0.42283806 -0.50350165 -0.09443949
N -1.0977985 0.3817324 1.118954
N -0.6204198 1.3944794 0.24470703
C 0.3051599 0.8122691 -0.52939767
N -0.48313227 -0.7516271 0.8541213
H -1.7840347 0.9763905 0.25426573
H 0.8334814 1.3417438 -1.3083078
H 1.1332622 -2.2303882 -0.0155284675
