10

O -1.7153585 -1.2866516 0.34082425
C -0.5997041 -0.53255016 0.17970055
C 0.73484004 -1.0278755 0.14118944
N 0.7167105 1.1823287 -0.15485391
C -0.5768716 0.8310087 0.063846976
N 1.536595 0.10342144 -0.048348013
H -1.4104311 -2.1993244 0.44239342
H 1.1140065 2.1056035 -0.20922092
H -1.3711185 1.5644424 0.12340489
H 1.571332 -0.7404027 -0.87893677
