10

O 0.21403684 2.2105742 0.39410493
C 0.118638694 0.88304913 0.16324744
C -1.0021151 0.19407915 -0.21457918
N -0.56972486 -1.1180854 -0.31228638
C 0.74297357 -1.1392655 0.0017177009
N 1.1939559 0.060464177 0.29589096
H 1.1301266 2.375392 0.6531318
H -2.0187933 0.4904459 -0.41394773
H -1.1367946 -1.9086204 -0.56959236
H 1.3276962 -2.0480332 0.0023129457
